generate:0x7ffd2bd08d30
generate:0x7ffd2bd08ea0
BEGIN Configuration File: test
//topology
topology = mesh;
k = 4;
n = 2;
type = interposer;
// Routing
routing_function = dor;

// Flow control
num_vcs     = 2;
vc_buf_size = 8;
wait_for_tail_credit = 1;
hold_switch_for_packet = 1;

// Router architecture
vc_allocator = islip;
sw_allocator = islip;
alloc_iters  = 1;

credit_delay   = 0;
routing_delay  = 1;
vc_alloc_delay = 1;
sw_alloc_delay = 1;
st_final_delay = 1;

input_speedup     = 1;
output_speedup    = 1;
internal_speedup  = 1.0;
vc_busy_when_full = 0;


//granulaity
latency_thres=20000.0;
deadlock_warn_timeout=20000;
traceStretch=3;

//gating
doGating=0;
sleepThreshold=40;
breakEvenThreshold=80;



//Syn Traffic
sim_type=latency;
traffic=uniform;
packet_size = 1;
sample_period=10000;
warmup_periods=1;
max_samples=10;
injection_rate=0.09;

//creditDelays=creditDelays({1,1,1,1,1,1,1,1,1,1,1,1,1,1,1,1,1,1,1,1,1,1,1,1,1,1,1,1,1,1,1,1,1,1,1,1,1,1,1,1,1,1,1,1,1,1,1,1,1,1,1,1,1,1,1,1,1,1,1,1,1,1,1,1});
//routingDelays=routingDelays({2,2,2,2,2,2,2,2,2,2,2,2,2,2,2,2,2,2,2,2,2,2,2,2,2,2,2,2,2,2,2,2,2,2,2,2,2,2,2,2,2,2,2,2,2,2,2,2,2,2,2,2,2,2,2,2,2,2,2,2,2,2,2,2});
//vcAllocDelays=vcAllocDelays({2,2,2,2,2,2,2,2,2,2,2,2,2,2,2,2,2,2,2,2,2,2,2,2,2,2,2,2,2,2,2,2,2,2,2,2,2,2,2,2,2,2,2,2,2,2,2,2,2,2,2,2,2,2,2,2,2,2,2,2,2,2,2,2});

creditDelays=creditDelays({0,0,0,0,0,0,0,0,0,0,0,0,0,0,0,0,0,0,0,0,0,0,0,0,0,0,0,0,0,0,0,0,0,0,0,0,0,0,0,0,0,0,0,0,0,0,0,0,0,0,0,0,0,0,0,0,0,0,0,0,0,0,0,0}});
routingDelays=routingDelays({1,1,1,1,1,1,1,1,1,1,1,1,1,1,1,1,1,1,1,1,1,1,1,1,1,1,1,1,1,1,1,1,1,1,1,1,1,1,1,1,1,1,1,1,1,1,1,1,1,1,1,1,1,1,1,1,1,1,1,1,1,1,1,1});
vcAllocDelays=vcAllocDelays({1,1,1,1,1,1,1,1,1,1,1,1,1,1,1,1,1,1,1,1,1,1,1,1,1,1,1,1,1,1,1,1,1,1,1,1,1,1,1,1,1,1,1,1,1,1,1,1,1,1,1,1,1,1,1,1,1,1,1,1,1,1,1,1});
swAllocDelays=swAllocDelays({1,1,1,1,1,1,1,1,1,1,1,1,1,1,1,1,1,1,1,1,1,1,1,1,1,1,1,1,1,1,1,1,1,1,1,1,1,1,1,1,1,1,1,1,1,1,1,1,1,1,1,1,1,1,1,1,1,1,1,1,1,1,1,1});
stFinalDelays=stFinalDelays({1,1,1,1,1,1,1,1,1,1,1,1,1,1,1,1,1,1,1,1,1,1,1,1,1,1,1,1,1,1,1,1,1,1,1,1,1,1,1,1,1,1,1,1,1,1,1,1,1,1,1,1,1,1,1,1,1,1,1,1,1,1,1,1});


isAsync=isAsync({0,0,0,0,0,0,0,0,0,0,0,0,0,0,0,0,0,0,0,0,0,0,0,0,0,0,0,0,0,0,0,0,0,0,0,0,0,0,0,0,0,0,0,0,0,0,0,0,0,0,0,0,0,0,0,0,0,0,0,0,0,0,0,0});
isMetaUnstable=isMetaUnstable({0,0,0,0,0,0,0,0,0,0,0,0,0,0,0,0,0,0,0,0,0,0,0,0,0,0,0,0,0,0,0,0,0,0,0,0,0,0,0,0,0,0,0,0,0,0,0,0,0,0,0,0,0,0,0,0,0,0,0,0,0,0,0,0});

creditDelayStdDevs=creditDelayStdDevs({0,0,0,0,0,0,0,0,0,0,0,0,0,0,0,0,0,0,0,0,0,0,0,0,0,0,0,0,0,0,0,0,0,0,0,0,0,0,0,0,0,0,0,0,0,0,0,0,0,0,0,0,0,0,0,0,0,0,0,0,0,0,0,0});
routingDelayStdDevs=routingDelayStdDevs({0,0,0,0,0,0,0,0,0,0,0,0,0,0,0,0,0,0,0,0,0,0,0,0,0,0,0,0,0,0,0,0,0,0,0,0,0,0,0,0,0,0,0,0,0,0,0,0,0,0,0,0,0,0,0,0,0,0,0,0,0,0,0,0});
vcAllocDelayStdDevs=vcAllocDelayStdDevs({0,0,0,0,0,0,0,0,0,0,0,0,0,0,0,0,0,0,0,0,0,0,0,0,0,0,0,0,0,0,0,0,0,0,0,0,0,0,0,0,0,0,0,0,0,0,0,0,0,0,0,0,0,0,0,0,0,0,0,0,0,0,0,0});
swAllocDelayStdDevs=swAllocDelayStdDevs({0,0,0,0,0,0,0,0,0,0,0,0,0,0,0,0,0,0,0,0,0,0,0,0,0,0,0,0,0,0,0,0,0,0,0,0,0,0,0,0,0,0,0,0,0,0,0,0,0,0,0,0,0,0,0,0,0,0,0,0,0,0,0,0});
stFinalDelayStdDevs=stFinalDelayStdDevs({0,0,0,0,0,0,0,0,0,0,0,0,0,0,0,0,0,0,0,0,0,0,0,0,0,0,0,0,0,0,0,0,0,0,0,0,0,0,0,0,0,0,0,0,0,0,0,0,0,0,0,0,0,0,0,0,0,0,0,0,0,0,0,0});

  
swAllocThresholds=swAllocThresholds({1,1,1,1,1,1,1,1,1,1,1,1,1,1,1,1,1,1,1,1,1,1,1,1,1,1,1,1,1,1,1,1,1,1,1,1,1,1,1,1,1,1,1,1,1,1,1,1,1,1,1,1,1,1,1,1,1,1,1,1,1,1,1,1});
swAllocThresholdStdDevs=swAllocThresholdStdDevs({0,0,0,0,0,0,0,0,0,0,0,0,0,0,0,0,0,0,0,0,0,0,0,0,0,0,0,0,0,0,0,0,0,0,0,0,0,0,0,0,0,0,0,0,0,0,0,0,0,0,0,0,0,0,0,0,0,0,0,0,0,0,0,0});
swAllocMetaStableThresholds=swAllocMetaStableThresholds({1,1,1,1,1,1,1,1,1,1,1,1,1,1,1,1,1,1,1,1,1,1,1,1,1,1,1,1,1,1,1,1,1,1,1,1,1,1,1,1,1,1,1,1,1,1,1,1,1,1,1,1,1,1,1,1,1,1,1,1,1,1,1,1});
swAllocMetaStableMaxPenalities=swAllocMetaStableMaxPenalities({0,0,0,0,0,0,0,0,0,0,0,0,0,0,0,0,0,0,0,0,0,0,0,0,0,0,0,0,0,0,0,0,0,0,0,0,0,0,0,0,0,0,0,0,0,0,0,0,0,0,0,0,0,0,0,0,0,0,0,0,0,0,0,0});

END Configuration File: test
rid:0 add uselessoutput chan64
rid:1 add uselessoutput chan64
rid:2 add uselessoutput chan64
rid:3 add uselessoutput chan64
rid:4 add uselessoutput chan64
rid:5 add uselessoutput chan64
rid:6 add uselessoutput chan64
rid:7 add uselessoutput chan64
rid:8 add uselessoutput chan64
rid:9 add uselessoutput chan64
rid:10 add uselessoutput chan64
rid:11 add uselessoutput chan64
rid:12 add uselessoutput chan64
rid:13 add uselessoutput chan64
rid:14 add uselessoutput chan64
rid:15 add uselessoutput chan64

Tick: 0M
===== Time: 10000 =====
Class 0:
Minimum packet latency = 6
Average packet latency = 19.7909
Maximum packet latency = 56
Minimum network latency = 7
Average network latency = 20.5731
Maximum network latency = 57
Slowest packet = 6140
Minimum flit latency = 7
Average flit latency = 20.5731
Maximum flit latency = 57
Slowest flit = 6140
Minimum fragmentation = 0
Average fragmentation = 0
Maximum fragmentation = 0
Minimum injected packet rate = 0.084 (at node 7)
Average injected packet rate = 0.088775
Maximum injected packet rate = 0.0955 (at node 6)
Minimum accepted packet rate = 0.0802 (at node 4)
Average accepted packet rate = 0.0885937
Maximum accepted packet rate = 0.0953 (at node 8)
Minimum injected flit rate = 0.084 (at node 7)
Average injected flit rate = 0.088775
Maximum injected flit rate = 0.0955 (at node 6)
Minimum accepted flit rate = 0.0802 (at node 4)
Average accepted flit rate = 0.0885937
Maximum accepted flit rate = 0.0953 (at node 8)
Total number of injected packets = 14204
Total number of injected flits = 14204
Average injected packet length = 1
Total number of accepted packets = 14175
Total number of accepted flits = 14175
Average accepted packet length = 1
Total in-flight flits = 29 (0 measured)
class 0 latency change    = 1
class 0 throughput change = 1
Warmed up ...Time used is 10000 cycles
===== Time: 20000 =====
Class 0:
Minimum packet latency = 6
Average packet latency = 19.7158
Maximum packet latency = 60
Minimum network latency = 7
Average network latency = 20.5078
Maximum network latency = 58
Slowest packet = 15262
Minimum flit latency = 7
Average flit latency = 20.5097
Maximum flit latency = 58
Slowest flit = 27905
Minimum fragmentation = 0
Average fragmentation = 0
Maximum fragmentation = 0
Minimum injected packet rate = 0.0845 (at node 6)
Average injected packet rate = 0.0898
Maximum injected packet rate = 0.0953 (at node 11)
Minimum accepted packet rate = 0.0807 (at node 4)
Average accepted packet rate = 0.0897875
Maximum accepted packet rate = 0.0928 (at node 9)
Minimum injected flit rate = 0.0845 (at node 6)
Average injected flit rate = 0.0898
Maximum injected flit rate = 0.0953 (at node 11)
Minimum accepted flit rate = 0.0807 (at node 4)
Average accepted flit rate = 0.0897875
Maximum accepted flit rate = 0.0928 (at node 9)
Total number of injected packets = 14368
Total number of injected flits = 14368
Average injected packet length = 1
Total number of accepted packets = 14366
Total number of accepted flits = 14366
Average accepted packet length = 1
Total in-flight flits = 31 (31 measured)
class 0 latency change    = 0.00381061
class 0 throughput change = 0.0132953
===== Time: 30000 =====
Class 0:
Minimum packet latency = 6
Average packet latency = 19.7054
Maximum packet latency = 60
Minimum network latency = 7
Average network latency = 20.4945
Maximum network latency = 60
Slowest packet = 15262
Minimum flit latency = 7
Average flit latency = 20.4955
Maximum flit latency = 60
Slowest flit = 34115
Minimum fragmentation = 0
Average fragmentation = 0
Maximum fragmentation = 0
Minimum injected packet rate = 0.0845 (at node 6)
Average injected packet rate = 0.0893656
Maximum injected packet rate = 0.0926 (at node 10)
Minimum accepted packet rate = 0.0857 (at node 4)
Average accepted packet rate = 0.0893656
Maximum accepted packet rate = 0.09345 (at node 7)
Minimum injected flit rate = 0.0845 (at node 6)
Average injected flit rate = 0.0893656
Maximum injected flit rate = 0.0926 (at node 10)
Minimum accepted flit rate = 0.0857 (at node 4)
Average accepted flit rate = 0.0893656
Maximum accepted flit rate = 0.09345 (at node 7)
Total number of injected packets = 28597
Total number of injected flits = 28597
Average injected packet length = 1
Total number of accepted packets = 28597
Total number of accepted flits = 28597
Average accepted packet length = 1
Total in-flight flits = 29 (29 measured)
class 0 latency change    = 0.000524258
class 0 throughput change = 0.00472077
===== Time: 40000 =====
Class 0:
Minimum packet latency = 6
Average packet latency = 19.7746
Maximum packet latency = 60
Minimum network latency = 7
Average network latency = 20.5527
Maximum network latency = 60
Slowest packet = 15262
Minimum flit latency = 7
Average flit latency = 20.5533
Maximum flit latency = 60
Slowest flit = 34115
Minimum fragmentation = 0
Average fragmentation = 0
Maximum fragmentation = 0
Minimum injected packet rate = 0.0857333 (at node 6)
Average injected packet rate = 0.0896437
Maximum injected packet rate = 0.0929667 (at node 10)
Minimum accepted packet rate = 0.086 (at node 4)
Average accepted packet rate = 0.0896521
Maximum accepted packet rate = 0.0931 (at node 7)
Minimum injected flit rate = 0.0857333 (at node 6)
Average injected flit rate = 0.0896437
Maximum injected flit rate = 0.0929667 (at node 10)
Minimum accepted flit rate = 0.086 (at node 4)
Average accepted flit rate = 0.0896521
Maximum accepted flit rate = 0.0931 (at node 7)
Total number of injected packets = 43029
Total number of injected flits = 43029
Average injected packet length = 1
Total number of accepted packets = 43033
Total number of accepted flits = 43033
Average accepted packet length = 1
Total in-flight flits = 25 (25 measured)
class 0 latency change    = 0.00349755
class 0 throughput change = 0.00319522
===== Time: 50000 =====
Class 0:
Minimum packet latency = 6
Average packet latency = 19.8003
Maximum packet latency = 60
Minimum network latency = 7
Average network latency = 20.5752
Maximum network latency = 60
Slowest packet = 15262
Minimum flit latency = 7
Average flit latency = 20.5756
Maximum flit latency = 60
Slowest flit = 34115
Minimum fragmentation = 0
Average fragmentation = 0
Maximum fragmentation = 0
Minimum injected packet rate = 0.086225 (at node 6)
Average injected packet rate = 0.0898687
Maximum injected packet rate = 0.0929 (at node 14)
Minimum accepted packet rate = 0.087775 (at node 0)
Average accepted packet rate = 0.0898797
Maximum accepted packet rate = 0.092525 (at node 7)
Minimum injected flit rate = 0.086225 (at node 6)
Average injected flit rate = 0.0898687
Maximum injected flit rate = 0.0929 (at node 14)
Minimum accepted flit rate = 0.087775 (at node 0)
Average accepted flit rate = 0.0898797
Maximum accepted flit rate = 0.092525 (at node 7)
Total number of injected packets = 57516
Total number of injected flits = 57516
Average injected packet length = 1
Total number of accepted packets = 57523
Total number of accepted flits = 57523
Average accepted packet length = 1
Total in-flight flits = 22 (22 measured)
class 0 latency change    = 0.00129569
class 0 throughput change = 0.00253232
===== Time: 60000 =====
Class 0:
Minimum packet latency = 6
Average packet latency = 19.7723
Maximum packet latency = 60
Minimum network latency = 7
Average network latency = 20.5472
Maximum network latency = 60
Slowest packet = 15262
Minimum flit latency = 7
Average flit latency = 20.5476
Maximum flit latency = 60
Slowest flit = 34115
Minimum fragmentation = 0
Average fragmentation = 0
Maximum fragmentation = 0
Minimum injected packet rate = 0.08772 (at node 6)
Average injected packet rate = 0.0898863
Maximum injected packet rate = 0.09318 (at node 15)
Minimum accepted packet rate = 0.08796 (at node 13)
Average accepted packet rate = 0.089885
Maximum accepted packet rate = 0.0924 (at node 9)
Minimum injected flit rate = 0.08772 (at node 6)
Average injected flit rate = 0.0898863
Maximum injected flit rate = 0.09318 (at node 15)
Minimum accepted flit rate = 0.08796 (at node 13)
Average accepted flit rate = 0.089885
Maximum accepted flit rate = 0.0924 (at node 9)
Total number of injected packets = 71909
Total number of injected flits = 71909
Average injected packet length = 1
Total number of accepted packets = 71908
Total number of accepted flits = 71908
Average accepted packet length = 1
Total in-flight flits = 30 (30 measured)
class 0 latency change    = 0.00141619
class 0 throughput change = 5.91033e-05
===== Time: 70000 =====
Class 0:
Minimum packet latency = 6
Average packet latency = 19.7772
Maximum packet latency = 60
Minimum network latency = 7
Average network latency = 20.553
Maximum network latency = 60
Slowest packet = 15262
Minimum flit latency = 7
Average flit latency = 20.5532
Maximum flit latency = 60
Slowest flit = 34115
Minimum fragmentation = 0
Average fragmentation = 0
Maximum fragmentation = 0
Minimum injected packet rate = 0.0882 (at node 2)
Average injected packet rate = 0.0899781
Maximum injected packet rate = 0.0926 (at node 15)
Minimum accepted packet rate = 0.088 (at node 13)
Average accepted packet rate = 0.0899812
Maximum accepted packet rate = 0.0922333 (at node 7)
Minimum injected flit rate = 0.0882 (at node 2)
Average injected flit rate = 0.0899781
Maximum injected flit rate = 0.0926 (at node 15)
Minimum accepted flit rate = 0.088 (at node 13)
Average accepted flit rate = 0.0899812
Maximum accepted flit rate = 0.0922333 (at node 7)
Total number of injected packets = 86379
Total number of injected flits = 86379
Average injected packet length = 1
Total number of accepted packets = 86382
Total number of accepted flits = 86382
Average accepted packet length = 1
Total in-flight flits = 26 (26 measured)
class 0 latency change    = 0.00025141
class 0 throughput change = 0.00106967
===== Time: 80000 =====
Class 0:
Minimum packet latency = 6
Average packet latency = 19.7697
Maximum packet latency = 60
Minimum network latency = 7
Average network latency = 20.5459
Maximum network latency = 61
Slowest packet = 104219
Minimum flit latency = 7
Average flit latency = 20.5462
Maximum flit latency = 61
Slowest flit = 104219
Minimum fragmentation = 0
Average fragmentation = 0
Maximum fragmentation = 0
Minimum injected packet rate = 0.0885571 (at node 6)
Average injected packet rate = 0.0899705
Maximum injected packet rate = 0.0918857 (at node 15)
Minimum accepted packet rate = 0.0879571 (at node 13)
Average accepted packet rate = 0.0899705
Maximum accepted packet rate = 0.0921714 (at node 9)
Minimum injected flit rate = 0.0885571 (at node 6)
Average injected flit rate = 0.0899705
Maximum injected flit rate = 0.0918857 (at node 15)
Minimum accepted flit rate = 0.0879571 (at node 13)
Average accepted flit rate = 0.0899705
Maximum accepted flit rate = 0.0921714 (at node 9)
Total number of injected packets = 100767
Total number of injected flits = 100767
Average injected packet length = 1
Total number of accepted packets = 100767
Total number of accepted flits = 100767
Average accepted packet length = 1
Total in-flight flits = 29 (29 measured)
class 0 latency change    = 0.00038032
class 0 throughput change = 0.000119087
===== Time: 90000 =====
Class 0:
Minimum packet latency = 6
Average packet latency = 19.7795
Maximum packet latency = 63
Minimum network latency = 7
Average network latency = 20.551
Maximum network latency = 64
Slowest packet = 126834
Minimum flit latency = 7
Average flit latency = 20.5512
Maximum flit latency = 64
Slowest flit = 126834
Minimum fragmentation = 0
Average fragmentation = 0
Maximum fragmentation = 0
Minimum injected packet rate = 0.0886875 (at node 2)
Average injected packet rate = 0.0901391
Maximum injected packet rate = 0.09185 (at node 15)
Minimum accepted packet rate = 0.0884125 (at node 13)
Average accepted packet rate = 0.0901391
Maximum accepted packet rate = 0.0921625 (at node 7)
Minimum injected flit rate = 0.0886875 (at node 2)
Average injected flit rate = 0.0901391
Maximum injected flit rate = 0.09185 (at node 15)
Minimum accepted flit rate = 0.0884125 (at node 13)
Average accepted flit rate = 0.0901391
Maximum accepted flit rate = 0.0921625 (at node 7)
Total number of injected packets = 115378
Total number of injected flits = 115378
Average injected packet length = 1
Total number of accepted packets = 115378
Total number of accepted flits = 115378
Average accepted packet length = 1
Total in-flight flits = 29 (29 measured)
class 0 latency change    = 0.000494741
class 0 throughput change = 0.00186963
===== Time: 100000 =====
Class 0:
Minimum packet latency = 6
Average packet latency = 19.7828
Maximum packet latency = 63
Minimum network latency = 7
Average network latency = 20.5547
Maximum network latency = 64
Slowest packet = 126834
Minimum flit latency = 7
Average flit latency = 20.5549
Maximum flit latency = 64
Slowest flit = 126834
Minimum fragmentation = 0
Average fragmentation = 0
Maximum fragmentation = 0
Minimum injected packet rate = 0.0888111 (at node 1)
Average injected packet rate = 0.0901174
Maximum injected packet rate = 0.0918222 (at node 15)
Minimum accepted packet rate = 0.0885111 (at node 0)
Average accepted packet rate = 0.0901194
Maximum accepted packet rate = 0.0917444 (at node 9)
Minimum injected flit rate = 0.0888111 (at node 1)
Average injected flit rate = 0.0901174
Maximum injected flit rate = 0.0918222 (at node 15)
Minimum accepted flit rate = 0.0885111 (at node 0)
Average accepted flit rate = 0.0901194
Maximum accepted flit rate = 0.0917444 (at node 9)
Total number of injected packets = 129769
Total number of injected flits = 129769
Average injected packet length = 1
Total number of accepted packets = 129772
Total number of accepted flits = 129772
Average accepted packet length = 1
Total in-flight flits = 26 (26 measured)
class 0 latency change    = 0.000164783
class 0 throughput change = 0.000217689
Draining all recorded packets ...
Draining remaining packets ...
Time taken is 100055 cycles
====== Traffic class 0 ======

Total number of flits generated = 144014, changed lanes = 0
Overall minimum packet latency = 6 (1 samples)
Overall average packet latency = 19.7831 (1 samples)
Overall maximum packet latency = 63 (1 samples)
Overall minimum network latency = 7 (1 samples)
Overall average network latency = 20.5551 (1 samples)
Overall maximum network latency = 64 (1 samples)
Overall minimum flit latency = 7 (1 samples)
Overall average flit latency = 20.5549 (1 samples)
Overall maximum flit latency = 64 (1 samples)
Overall minimum fragmentation = 0 (1 samples)
Overall average fragmentation = 0 (1 samples)
Overall maximum fragmentation = 0 (1 samples)
Overall minimum injected packet rate = 0.0888111 (1 samples)
Overall average injected packet rate = 0.0901174 (1 samples)
Overall maximum injected packet rate = 0.0918222 (1 samples)
Overall minimum accepted packet rate = 0.0885111 (1 samples)
Overall average accepted packet rate = 0.0901194 (1 samples)
Overall maximum accepted packet rate = 0.0917444 (1 samples)
Overall minimum injected flit rate = 0.0888111 (1 samples)
Overall average injected flit rate = 0.0901174 (1 samples)
Overall maximum injected flit rate = 0.0918222 (1 samples)
Overall minimum accepted flit rate = 0.0885111 (1 samples)
Overall average accepted flit rate = 0.0901194 (1 samples)
Overall maximum accepted flit rate = 0.0917444 (1 samples)
Overall average injected packet size = 1 (1 samples)
Overall average accepted packet size = 1 (1 samples)
Overall average hops = 3.49794 (1 samples)
Overall throughput of the network (flits/cycle) = 1.60016
Overall throughput of the network (packets/cycle) = 1.60016
CSV Result Header , avgFLat,avgFInjRate
CSV Result ,20.5549,0.0901174

Power Report Header, Frequency, Time, StaticIQ, DynamicIQ, StaticVC, DynamicVC, StaticSA, DynamicSA, StaticST, DynamicST, StaticLink, DynamicLink, NoFlits, ePerFlit
Power Report,3.9e+08,100055,0.0329687,0.0254142,0.0018744,0.000747133,0.000562321,0.000701301,0.119399,0.00879832,0.0226366,0.0204931,144014,4.17465e-10

*****************************************
Total run time 7.77305
generate:0x7ffd2bd087a0
delete:0x7ffd2bd087a0
L = 2 K = 8.1 M = 2 N = 1
-----------------------------------------
- OCN Power Summary
- Completion Time:         100055
- Flit Widths:            64
- Channel Wire Power:      3.54981
- Channel Clock Power:     0.371137
- Channel Retiming Power:  0.0441044
- Channel Leakage Power:   0.139912
- Input Read Power:        0.0735848
- Input Write Power:       0.0735848
- Input Leakage Power:     0.0283116
- Switch Power:            0.164974
- Switch Control Power:    0.0826158
- Switch Leakage Power:    0.192763
- Output DFF Power:        0.0171503
- Output Clk Power:        0.181781
- Output Control Power:    0.00885098
- Total Power:             4.92858
-----------------------------------------

-----------------------------------------
- OCN Area Summary
- Channel Area:  0.0278095
- Switch  Area:  0.060398
- Input  Area:   0.030199
- Output  Area:  0.00503316
- Total Area:    0.12344
-----------------------------------------
CSV Power Result Header , Completion Time, Channel Wire, Channel Clock, Channel Retiming, Channel Leakage, Input Read, Input Write, Input Leakage, Switch Power, Switch Control, Switch Leakage, Output DFF, Output Clk, Output Control
CSV Power Result , 100055, 3.54981, 0.371137, 0.0441044, 0.139912, 0.0735848, 0.0735848, 0.0283116, 0.164974, 0.0826158, 0.192763, 0.0171503, 0.181781, 0.00885098
delete:0x7ffd2bd087a0
delete:0x7ffd2bd087a0
