generate:0x7fffb5083df0
generate:0x7fffb5083f60
BEGIN Configuration File: test
//topology
topology = mesh;
k = 4;
n = 2;
type = interposer;
// Routing
routing_function = dor;

// Flow control
num_vcs     = 2;
vc_buf_size = 8;
wait_for_tail_credit = 1;
hold_switch_for_packet = 1;

// Router architecture
vc_allocator = islip;
sw_allocator = islip;
alloc_iters  = 1;

credit_delay   = 0;
routing_delay  = 1;
vc_alloc_delay = 1;
sw_alloc_delay = 1;
st_final_delay = 1;

input_speedup     = 1;
output_speedup    = 1;
internal_speedup  = 1.0;
vc_busy_when_full = 0;


//granulaity
latency_thres=20000.0;
deadlock_warn_timeout=20000;
traceStretch=3;

//gating
doGating=0;
sleepThreshold=40;
breakEvenThreshold=80;



//Syn Traffic
sim_type=latency;
traffic=uniform;
packet_size = 1;
sample_period=10000;
warmup_periods=1;
max_samples=10;
injection_rate=0.04;

//creditDelays=creditDelays({1,1,1,1,1,1,1,1,1,1,1,1,1,1,1,1,1,1,1,1,1,1,1,1,1,1,1,1,1,1,1,1,1,1,1,1,1,1,1,1,1,1,1,1,1,1,1,1,1,1,1,1,1,1,1,1,1,1,1,1,1,1,1,1});
//routingDelays=routingDelays({2,2,2,2,2,2,2,2,2,2,2,2,2,2,2,2,2,2,2,2,2,2,2,2,2,2,2,2,2,2,2,2,2,2,2,2,2,2,2,2,2,2,2,2,2,2,2,2,2,2,2,2,2,2,2,2,2,2,2,2,2,2,2,2});
//vcAllocDelays=vcAllocDelays({2,2,2,2,2,2,2,2,2,2,2,2,2,2,2,2,2,2,2,2,2,2,2,2,2,2,2,2,2,2,2,2,2,2,2,2,2,2,2,2,2,2,2,2,2,2,2,2,2,2,2,2,2,2,2,2,2,2,2,2,2,2,2,2});

creditDelays=creditDelays({0,0,0,0,0,0,0,0,0,0,0,0,0,0,0,0,0,0,0,0,0,0,0,0,0,0,0,0,0,0,0,0,0,0,0,0,0,0,0,0,0,0,0,0,0,0,0,0,0,0,0,0,0,0,0,0,0,0,0,0,0,0,0,0}});
routingDelays=routingDelays({1,1,1,1,1,1,1,1,1,1,1,1,1,1,1,1,1,1,1,1,1,1,1,1,1,1,1,1,1,1,1,1,1,1,1,1,1,1,1,1,1,1,1,1,1,1,1,1,1,1,1,1,1,1,1,1,1,1,1,1,1,1,1,1});
vcAllocDelays=vcAllocDelays({1,1,1,1,1,1,1,1,1,1,1,1,1,1,1,1,1,1,1,1,1,1,1,1,1,1,1,1,1,1,1,1,1,1,1,1,1,1,1,1,1,1,1,1,1,1,1,1,1,1,1,1,1,1,1,1,1,1,1,1,1,1,1,1});
swAllocDelays=swAllocDelays({1,1,1,1,1,1,1,1,1,1,1,1,1,1,1,1,1,1,1,1,1,1,1,1,1,1,1,1,1,1,1,1,1,1,1,1,1,1,1,1,1,1,1,1,1,1,1,1,1,1,1,1,1,1,1,1,1,1,1,1,1,1,1,1});
stFinalDelays=stFinalDelays({1,1,1,1,1,1,1,1,1,1,1,1,1,1,1,1,1,1,1,1,1,1,1,1,1,1,1,1,1,1,1,1,1,1,1,1,1,1,1,1,1,1,1,1,1,1,1,1,1,1,1,1,1,1,1,1,1,1,1,1,1,1,1,1});


isAsync=isAsync({0,0,0,0,0,0,0,0,0,0,0,0,0,0,0,0,0,0,0,0,0,0,0,0,0,0,0,0,0,0,0,0,0,0,0,0,0,0,0,0,0,0,0,0,0,0,0,0,0,0,0,0,0,0,0,0,0,0,0,0,0,0,0,0});
isMetaUnstable=isMetaUnstable({0,0,0,0,0,0,0,0,0,0,0,0,0,0,0,0,0,0,0,0,0,0,0,0,0,0,0,0,0,0,0,0,0,0,0,0,0,0,0,0,0,0,0,0,0,0,0,0,0,0,0,0,0,0,0,0,0,0,0,0,0,0,0,0});

creditDelayStdDevs=creditDelayStdDevs({0,0,0,0,0,0,0,0,0,0,0,0,0,0,0,0,0,0,0,0,0,0,0,0,0,0,0,0,0,0,0,0,0,0,0,0,0,0,0,0,0,0,0,0,0,0,0,0,0,0,0,0,0,0,0,0,0,0,0,0,0,0,0,0});
routingDelayStdDevs=routingDelayStdDevs({0,0,0,0,0,0,0,0,0,0,0,0,0,0,0,0,0,0,0,0,0,0,0,0,0,0,0,0,0,0,0,0,0,0,0,0,0,0,0,0,0,0,0,0,0,0,0,0,0,0,0,0,0,0,0,0,0,0,0,0,0,0,0,0});
vcAllocDelayStdDevs=vcAllocDelayStdDevs({0,0,0,0,0,0,0,0,0,0,0,0,0,0,0,0,0,0,0,0,0,0,0,0,0,0,0,0,0,0,0,0,0,0,0,0,0,0,0,0,0,0,0,0,0,0,0,0,0,0,0,0,0,0,0,0,0,0,0,0,0,0,0,0});
swAllocDelayStdDevs=swAllocDelayStdDevs({0,0,0,0,0,0,0,0,0,0,0,0,0,0,0,0,0,0,0,0,0,0,0,0,0,0,0,0,0,0,0,0,0,0,0,0,0,0,0,0,0,0,0,0,0,0,0,0,0,0,0,0,0,0,0,0,0,0,0,0,0,0,0,0});
stFinalDelayStdDevs=stFinalDelayStdDevs({0,0,0,0,0,0,0,0,0,0,0,0,0,0,0,0,0,0,0,0,0,0,0,0,0,0,0,0,0,0,0,0,0,0,0,0,0,0,0,0,0,0,0,0,0,0,0,0,0,0,0,0,0,0,0,0,0,0,0,0,0,0,0,0});

  
swAllocThresholds=swAllocThresholds({1,1,1,1,1,1,1,1,1,1,1,1,1,1,1,1,1,1,1,1,1,1,1,1,1,1,1,1,1,1,1,1,1,1,1,1,1,1,1,1,1,1,1,1,1,1,1,1,1,1,1,1,1,1,1,1,1,1,1,1,1,1,1,1});
swAllocThresholdStdDevs=swAllocThresholdStdDevs({0,0,0,0,0,0,0,0,0,0,0,0,0,0,0,0,0,0,0,0,0,0,0,0,0,0,0,0,0,0,0,0,0,0,0,0,0,0,0,0,0,0,0,0,0,0,0,0,0,0,0,0,0,0,0,0,0,0,0,0,0,0,0,0});
swAllocMetaStableThresholds=swAllocMetaStableThresholds({1,1,1,1,1,1,1,1,1,1,1,1,1,1,1,1,1,1,1,1,1,1,1,1,1,1,1,1,1,1,1,1,1,1,1,1,1,1,1,1,1,1,1,1,1,1,1,1,1,1,1,1,1,1,1,1,1,1,1,1,1,1,1,1});
swAllocMetaStableMaxPenalities=swAllocMetaStableMaxPenalities({0,0,0,0,0,0,0,0,0,0,0,0,0,0,0,0,0,0,0,0,0,0,0,0,0,0,0,0,0,0,0,0,0,0,0,0,0,0,0,0,0,0,0,0,0,0,0,0,0,0,0,0,0,0,0,0,0,0,0,0,0,0,0,0});

END Configuration File: test
rid:0 add uselessoutput chan64
rid:1 add uselessoutput chan64
rid:2 add uselessoutput chan64
rid:3 add uselessoutput chan64
rid:4 add uselessoutput chan64
rid:5 add uselessoutput chan64
rid:6 add uselessoutput chan64
rid:7 add uselessoutput chan64
rid:8 add uselessoutput chan64
rid:9 add uselessoutput chan64
rid:10 add uselessoutput chan64
rid:11 add uselessoutput chan64
rid:12 add uselessoutput chan64
rid:13 add uselessoutput chan64
rid:14 add uselessoutput chan64
rid:15 add uselessoutput chan64

Tick: 0M
===== Time: 10000 =====
Class 0:
Minimum packet latency = 6
Average packet latency = 18.6898
Maximum packet latency = 43
Minimum network latency = 7
Average network latency = 19.6625
Maximum network latency = 42
Slowest packet = 3720
Minimum flit latency = 7
Average flit latency = 19.6625
Maximum flit latency = 42
Slowest flit = 3435
Minimum fragmentation = 0
Average fragmentation = 0
Maximum fragmentation = 0
Minimum injected packet rate = 0.0357 (at node 0)
Average injected packet rate = 0.0399875
Maximum injected packet rate = 0.0426 (at node 15)
Minimum accepted packet rate = 0.0363 (at node 4)
Average accepted packet rate = 0.0399125
Maximum accepted packet rate = 0.0423 (at node 8)
Minimum injected flit rate = 0.0357 (at node 0)
Average injected flit rate = 0.0399875
Maximum injected flit rate = 0.0426 (at node 15)
Minimum accepted flit rate = 0.0363 (at node 4)
Average accepted flit rate = 0.0399125
Maximum accepted flit rate = 0.0423 (at node 8)
Total number of injected packets = 6398
Total number of injected flits = 6398
Average injected packet length = 1
Total number of accepted packets = 6386
Total number of accepted flits = 6386
Average accepted packet length = 1
Total in-flight flits = 12 (0 measured)
class 0 latency change    = 1
class 0 throughput change = 1
Warmed up ...Time used is 10000 cycles
===== Time: 20000 =====
Class 0:
Minimum packet latency = 6
Average packet latency = 18.8119
Maximum packet latency = 42
Minimum network latency = 7
Average network latency = 19.7833
Maximum network latency = 42
Slowest packet = 7365
Minimum flit latency = 7
Average flit latency = 19.789
Maximum flit latency = 42
Slowest flit = 7851
Minimum fragmentation = 0
Average fragmentation = 0
Maximum fragmentation = 0
Minimum injected packet rate = 0.0375 (at node 2)
Average injected packet rate = 0.0403
Maximum injected packet rate = 0.0435 (at node 11)
Minimum accepted packet rate = 0.0356 (at node 4)
Average accepted packet rate = 0.040275
Maximum accepted packet rate = 0.044 (at node 7)
Minimum injected flit rate = 0.0375 (at node 2)
Average injected flit rate = 0.0403
Maximum injected flit rate = 0.0435 (at node 11)
Minimum accepted flit rate = 0.0356 (at node 4)
Average accepted flit rate = 0.040275
Maximum accepted flit rate = 0.044 (at node 7)
Total number of injected packets = 6448
Total number of injected flits = 6448
Average injected packet length = 1
Total number of accepted packets = 6444
Total number of accepted flits = 6444
Average accepted packet length = 1
Total in-flight flits = 16 (16 measured)
class 0 latency change    = 0.00648994
class 0 throughput change = 0.00900062
===== Time: 30000 =====
Class 0:
Minimum packet latency = 6
Average packet latency = 18.7815
Maximum packet latency = 44
Minimum network latency = 7
Average network latency = 19.751
Maximum network latency = 44
Slowest packet = 13662
Minimum flit latency = 7
Average flit latency = 19.7539
Maximum flit latency = 44
Slowest flit = 18545
Minimum fragmentation = 0
Average fragmentation = 0
Maximum fragmentation = 0
Minimum injected packet rate = 0.0369 (at node 2)
Average injected packet rate = 0.0399656
Maximum injected packet rate = 0.0427 (at node 12)
Minimum accepted packet rate = 0.0365 (at node 4)
Average accepted packet rate = 0.0399781
Maximum accepted packet rate = 0.0422 (at node 8)
Minimum injected flit rate = 0.0369 (at node 2)
Average injected flit rate = 0.0399656
Maximum injected flit rate = 0.0427 (at node 12)
Minimum accepted flit rate = 0.0365 (at node 4)
Average accepted flit rate = 0.0399781
Maximum accepted flit rate = 0.0422 (at node 8)
Total number of injected packets = 12789
Total number of injected flits = 12789
Average injected packet length = 1
Total number of accepted packets = 12793
Total number of accepted flits = 12793
Average accepted packet length = 1
Total in-flight flits = 8 (8 measured)
class 0 latency change    = 0.00161892
class 0 throughput change = 0.00742594
===== Time: 40000 =====
Class 0:
Minimum packet latency = 6
Average packet latency = 18.7929
Maximum packet latency = 44
Minimum network latency = 7
Average network latency = 19.76
Maximum network latency = 44
Slowest packet = 13662
Minimum flit latency = 7
Average flit latency = 19.7619
Maximum flit latency = 44
Slowest flit = 18545
Minimum fragmentation = 0
Average fragmentation = 0
Maximum fragmentation = 0
Minimum injected packet rate = 0.0375 (at node 2)
Average injected packet rate = 0.0399958
Maximum injected packet rate = 0.0418 (at node 12)
Minimum accepted packet rate = 0.0361 (at node 4)
Average accepted packet rate = 0.0399958
Maximum accepted packet rate = 0.0421 (at node 9)
Minimum injected flit rate = 0.0375 (at node 2)
Average injected flit rate = 0.0399958
Maximum injected flit rate = 0.0418 (at node 12)
Minimum accepted flit rate = 0.0361 (at node 4)
Average accepted flit rate = 0.0399958
Maximum accepted flit rate = 0.0421 (at node 9)
Total number of injected packets = 19198
Total number of injected flits = 19198
Average injected packet length = 1
Total number of accepted packets = 19198
Total number of accepted flits = 19198
Average accepted packet length = 1
Total in-flight flits = 12 (12 measured)
class 0 latency change    = 0.00060647
class 0 throughput change = 0.000442754
===== Time: 50000 =====
Class 0:
Minimum packet latency = 6
Average packet latency = 18.8115
Maximum packet latency = 44
Minimum network latency = 7
Average network latency = 19.7795
Maximum network latency = 45
Slowest packet = 28219
Minimum flit latency = 7
Average flit latency = 19.7809
Maximum flit latency = 45
Slowest flit = 28219
Minimum fragmentation = 0
Average fragmentation = 0
Maximum fragmentation = 0
Minimum injected packet rate = 0.038175 (at node 2)
Average injected packet rate = 0.0401
Maximum injected packet rate = 0.04195 (at node 13)
Minimum accepted packet rate = 0.036525 (at node 4)
Average accepted packet rate = 0.0401
Maximum accepted packet rate = 0.041525 (at node 9)
Minimum injected flit rate = 0.038175 (at node 2)
Average injected flit rate = 0.0401
Maximum injected flit rate = 0.04195 (at node 13)
Minimum accepted flit rate = 0.036525 (at node 4)
Average accepted flit rate = 0.0401
Maximum accepted flit rate = 0.041525 (at node 9)
Total number of injected packets = 25664
Total number of injected flits = 25664
Average injected packet length = 1
Total number of accepted packets = 25664
Total number of accepted flits = 25664
Average accepted packet length = 1
Total in-flight flits = 12 (12 measured)
class 0 latency change    = 0.000991194
class 0 throughput change = 0.00259767
===== Time: 60000 =====
Class 0:
Minimum packet latency = 6
Average packet latency = 18.7901
Maximum packet latency = 44
Minimum network latency = 7
Average network latency = 19.7576
Maximum network latency = 45
Slowest packet = 28219
Minimum flit latency = 7
Average flit latency = 19.7587
Maximum flit latency = 45
Slowest flit = 28219
Minimum fragmentation = 0
Average fragmentation = 0
Maximum fragmentation = 0
Minimum injected packet rate = 0.03854 (at node 1)
Average injected packet rate = 0.04005
Maximum injected packet rate = 0.04156 (at node 13)
Minimum accepted packet rate = 0.03728 (at node 4)
Average accepted packet rate = 0.040045
Maximum accepted packet rate = 0.04148 (at node 7)
Minimum injected flit rate = 0.03854 (at node 1)
Average injected flit rate = 0.04005
Maximum injected flit rate = 0.04156 (at node 13)
Minimum accepted flit rate = 0.03728 (at node 4)
Average accepted flit rate = 0.040045
Maximum accepted flit rate = 0.04148 (at node 7)
Total number of injected packets = 32040
Total number of injected flits = 32040
Average injected packet length = 1
Total number of accepted packets = 32036
Total number of accepted flits = 32036
Average accepted packet length = 1
Total in-flight flits = 16 (16 measured)
class 0 latency change    = 0.00114167
class 0 throughput change = 0.00137345
===== Time: 70000 =====
Class 0:
Minimum packet latency = 6
Average packet latency = 18.7608
Maximum packet latency = 44
Minimum network latency = 7
Average network latency = 19.728
Maximum network latency = 45
Slowest packet = 28219
Minimum flit latency = 7
Average flit latency = 19.7289
Maximum flit latency = 45
Slowest flit = 28219
Minimum fragmentation = 0
Average fragmentation = 0
Maximum fragmentation = 0
Minimum injected packet rate = 0.03855 (at node 1)
Average injected packet rate = 0.0400271
Maximum injected packet rate = 0.0410167 (at node 13)
Minimum accepted packet rate = 0.0382167 (at node 4)
Average accepted packet rate = 0.0400312
Maximum accepted packet rate = 0.0417833 (at node 7)
Minimum injected flit rate = 0.03855 (at node 1)
Average injected flit rate = 0.0400271
Maximum injected flit rate = 0.0410167 (at node 13)
Minimum accepted flit rate = 0.0382167 (at node 4)
Average accepted flit rate = 0.0400312
Maximum accepted flit rate = 0.0417833 (at node 7)
Total number of injected packets = 38426
Total number of injected flits = 38426
Average injected packet length = 1
Total number of accepted packets = 38430
Total number of accepted flits = 38430
Average accepted packet length = 1
Total in-flight flits = 8 (8 measured)
class 0 latency change    = 0.00155902
class 0 throughput change = 0.000343482
===== Time: 80000 =====
Class 0:
Minimum packet latency = 6
Average packet latency = 18.7477
Maximum packet latency = 45
Minimum network latency = 7
Average network latency = 19.7151
Maximum network latency = 46
Slowest packet = 50523
Minimum flit latency = 7
Average flit latency = 19.7159
Maximum flit latency = 46
Slowest flit = 50523
Minimum fragmentation = 0
Average fragmentation = 0
Maximum fragmentation = 0
Minimum injected packet rate = 0.0383286 (at node 1)
Average injected packet rate = 0.0400098
Maximum injected packet rate = 0.0409143 (at node 13)
Minimum accepted packet rate = 0.0378857 (at node 4)
Average accepted packet rate = 0.0400098
Maximum accepted packet rate = 0.0419143 (at node 7)
Minimum injected flit rate = 0.0383286 (at node 1)
Average injected flit rate = 0.0400098
Maximum injected flit rate = 0.0409143 (at node 13)
Minimum accepted flit rate = 0.0378857 (at node 4)
Average accepted flit rate = 0.0400098
Maximum accepted flit rate = 0.0419143 (at node 7)
Total number of injected packets = 44811
Total number of injected flits = 44811
Average injected packet length = 1
Total number of accepted packets = 44811
Total number of accepted flits = 44811
Average accepted packet length = 1
Total in-flight flits = 12 (12 measured)
class 0 latency change    = 0.000698627
class 0 throughput change = 0.000535583
===== Time: 90000 =====
Class 0:
Minimum packet latency = 6
Average packet latency = 18.7447
Maximum packet latency = 45
Minimum network latency = 7
Average network latency = 19.7119
Maximum network latency = 46
Slowest packet = 50523
Minimum flit latency = 7
Average flit latency = 19.7126
Maximum flit latency = 46
Slowest flit = 50523
Minimum fragmentation = 0
Average fragmentation = 0
Maximum fragmentation = 0
Minimum injected packet rate = 0.0381375 (at node 1)
Average injected packet rate = 0.0401281
Maximum injected packet rate = 0.0413625 (at node 13)
Minimum accepted packet rate = 0.0383625 (at node 4)
Average accepted packet rate = 0.0401227
Maximum accepted packet rate = 0.0418 (at node 7)
Minimum injected flit rate = 0.0381375 (at node 1)
Average injected flit rate = 0.0401281
Maximum injected flit rate = 0.0413625 (at node 13)
Minimum accepted flit rate = 0.0383625 (at node 4)
Average accepted flit rate = 0.0401227
Maximum accepted flit rate = 0.0418 (at node 7)
Total number of injected packets = 51364
Total number of injected flits = 51364
Average injected packet length = 1
Total number of accepted packets = 51357
Total number of accepted flits = 51357
Average accepted packet length = 1
Total in-flight flits = 19 (19 measured)
class 0 latency change    = 0.000159551
class 0 throughput change = 0.00281225
===== Time: 100000 =====
Class 0:
Minimum packet latency = 6
Average packet latency = 18.7406
Maximum packet latency = 46
Minimum network latency = 7
Average network latency = 19.7074
Maximum network latency = 46
Slowest packet = 50523
Minimum flit latency = 7
Average flit latency = 19.708
Maximum flit latency = 46
Slowest flit = 50523
Minimum fragmentation = 0
Average fragmentation = 0
Maximum fragmentation = 0
Minimum injected packet rate = 0.0381556 (at node 1)
Average injected packet rate = 0.0400833
Maximum injected packet rate = 0.0411889 (at node 13)
Minimum accepted packet rate = 0.0387667 (at node 4)
Average accepted packet rate = 0.0400868
Maximum accepted packet rate = 0.0417889 (at node 7)
Minimum injected flit rate = 0.0381556 (at node 1)
Average injected flit rate = 0.0400833
Maximum injected flit rate = 0.0411889 (at node 13)
Minimum accepted flit rate = 0.0387667 (at node 4)
Average accepted flit rate = 0.0400868
Maximum accepted flit rate = 0.0417889 (at node 7)
Total number of injected packets = 57720
Total number of injected flits = 57720
Average injected packet length = 1
Total number of accepted packets = 57725
Total number of accepted flits = 57725
Average accepted packet length = 1
Total in-flight flits = 7 (7 measured)
class 0 latency change    = 0.000222288
class 0 throughput change = 0.000894327
Draining all recorded packets ...
Draining remaining packets ...
Time taken is 100034 cycles
====== Traffic class 0 ======

Total number of flits generated = 64126, changed lanes = 0
Overall minimum packet latency = 6 (1 samples)
Overall average packet latency = 18.7408 (1 samples)
Overall maximum packet latency = 46 (1 samples)
Overall minimum network latency = 7 (1 samples)
Overall average network latency = 19.7077 (1 samples)
Overall maximum network latency = 46 (1 samples)
Overall minimum flit latency = 7 (1 samples)
Overall average flit latency = 19.7076 (1 samples)
Overall maximum flit latency = 46 (1 samples)
Overall minimum fragmentation = 0 (1 samples)
Overall average fragmentation = 0 (1 samples)
Overall maximum fragmentation = 0 (1 samples)
Overall minimum injected packet rate = 0.0381556 (1 samples)
Overall average injected packet rate = 0.0400833 (1 samples)
Overall maximum injected packet rate = 0.0411889 (1 samples)
Overall minimum accepted packet rate = 0.0387667 (1 samples)
Overall average accepted packet rate = 0.0400868 (1 samples)
Overall maximum accepted packet rate = 0.0417889 (1 samples)
Overall minimum injected flit rate = 0.0381556 (1 samples)
Overall average injected flit rate = 0.0400833 (1 samples)
Overall maximum injected flit rate = 0.0411889 (1 samples)
Overall minimum accepted flit rate = 0.0387667 (1 samples)
Overall average accepted flit rate = 0.0400868 (1 samples)
Overall maximum accepted flit rate = 0.0417889 (1 samples)
Overall average injected packet size = 1 (1 samples)
Overall average accepted packet size = 1 (1 samples)
Overall average hops = 3.4999 (1 samples)
Overall throughput of the network (flits/cycle) = 0.712511
Overall throughput of the network (packets/cycle) = 0.712511
CSV Result Header , avgFLat,avgFInjRate
CSV Result ,19.7076,0.0400833

Power Report Header, Frequency, Time, StaticIQ, DynamicIQ, StaticVC, DynamicVC, StaticSA, DynamicSA, StaticST, DynamicST, StaticLink, DynamicLink, NoFlits, ePerFlit
Power Report,3.9e+08,100034,0.0329687,0.0113192,0.0018744,0.000332681,0.000562321,0.000311112,0.119399,0.00390523,0.0226366,0.00912738,64126,8.11057e-10

*****************************************
Total run time 4.84342
generate:0x7fffb5083860
delete:0x7fffb5083860
L = 2 K = 8.1 M = 2 N = 1
-----------------------------------------
- OCN Power Summary
- Completion Time:         100034
- Flit Widths:            64
- Channel Wire Power:      1.58103
- Channel Clock Power:     0.371137
- Channel Retiming Power:  0.0196434
- Channel Leakage Power:   0.139912
- Input Read Power:        0.0327738
- Input Write Power:       0.0327738
- Input Leakage Power:     0.0283116
- Switch Power:            0.0735125
- Switch Control Power:    0.0367961
- Switch Leakage Power:    0.192763
- Output DFF Power:        0.00763855
- Output Clk Power:        0.181781
- Output Control Power:    0.00394212
- Total Power:             2.70201
-----------------------------------------

-----------------------------------------
- OCN Area Summary
- Channel Area:  0.0278095
- Switch  Area:  0.060398
- Input  Area:   0.030199
- Output  Area:  0.00503316
- Total Area:    0.12344
-----------------------------------------
CSV Power Result Header , Completion Time, Channel Wire, Channel Clock, Channel Retiming, Channel Leakage, Input Read, Input Write, Input Leakage, Switch Power, Switch Control, Switch Leakage, Output DFF, Output Clk, Output Control
CSV Power Result , 100034, 1.58103, 0.371137, 0.0196434, 0.139912, 0.0327738, 0.0327738, 0.0283116, 0.0735125, 0.0367961, 0.192763, 0.00763855, 0.181781, 0.00394212
delete:0x7fffb5083860
delete:0x7fffb5083860
