generate:0x7ffeb9efa7f0
generate:0x7ffeb9efa960
BEGIN Configuration File: test
//topology
topology = mesh;
k = 4;
n = 2;
type = interposer;
// Routing
routing_function = dor;

// Flow control
num_vcs     = 2;
vc_buf_size = 8;
wait_for_tail_credit = 1;
hold_switch_for_packet = 1;

// Router architecture
vc_allocator = islip;
sw_allocator = islip;
alloc_iters  = 1;

credit_delay   = 0;
routing_delay  = 1;
vc_alloc_delay = 1;
sw_alloc_delay = 1;
st_final_delay = 1;

input_speedup     = 1;
output_speedup    = 1;
internal_speedup  = 1.0;
vc_busy_when_full = 0;


//granulaity
latency_thres=20000.0;
deadlock_warn_timeout=20000;
traceStretch=3;

//gating
doGating=0;
sleepThreshold=40;
breakEvenThreshold=80;



//Syn Traffic
sim_type=latency;
traffic=uniform;
packet_size = 1;
sample_period=10000;
warmup_periods=1;
max_samples=10;
injection_rate=0.16;

//creditDelays=creditDelays({1,1,1,1,1,1,1,1,1,1,1,1,1,1,1,1,1,1,1,1,1,1,1,1,1,1,1,1,1,1,1,1,1,1,1,1,1,1,1,1,1,1,1,1,1,1,1,1,1,1,1,1,1,1,1,1,1,1,1,1,1,1,1,1});
//routingDelays=routingDelays({2,2,2,2,2,2,2,2,2,2,2,2,2,2,2,2,2,2,2,2,2,2,2,2,2,2,2,2,2,2,2,2,2,2,2,2,2,2,2,2,2,2,2,2,2,2,2,2,2,2,2,2,2,2,2,2,2,2,2,2,2,2,2,2});
//vcAllocDelays=vcAllocDelays({2,2,2,2,2,2,2,2,2,2,2,2,2,2,2,2,2,2,2,2,2,2,2,2,2,2,2,2,2,2,2,2,2,2,2,2,2,2,2,2,2,2,2,2,2,2,2,2,2,2,2,2,2,2,2,2,2,2,2,2,2,2,2,2});

creditDelays=creditDelays({0,0,0,0,0,0,0,0,0,0,0,0,0,0,0,0,0,0,0,0,0,0,0,0,0,0,0,0,0,0,0,0,0,0,0,0,0,0,0,0,0,0,0,0,0,0,0,0,0,0,0,0,0,0,0,0,0,0,0,0,0,0,0,0}});
routingDelays=routingDelays({1,1,1,1,1,1,1,1,1,1,1,1,1,1,1,1,1,1,1,1,1,1,1,1,1,1,1,1,1,1,1,1,1,1,1,1,1,1,1,1,1,1,1,1,1,1,1,1,1,1,1,1,1,1,1,1,1,1,1,1,1,1,1,1});
vcAllocDelays=vcAllocDelays({1,1,1,1,1,1,1,1,1,1,1,1,1,1,1,1,1,1,1,1,1,1,1,1,1,1,1,1,1,1,1,1,1,1,1,1,1,1,1,1,1,1,1,1,1,1,1,1,1,1,1,1,1,1,1,1,1,1,1,1,1,1,1,1});
swAllocDelays=swAllocDelays({1,1,1,1,1,1,1,1,1,1,1,1,1,1,1,1,1,1,1,1,1,1,1,1,1,1,1,1,1,1,1,1,1,1,1,1,1,1,1,1,1,1,1,1,1,1,1,1,1,1,1,1,1,1,1,1,1,1,1,1,1,1,1,1});
stFinalDelays=stFinalDelays({1,1,1,1,1,1,1,1,1,1,1,1,1,1,1,1,1,1,1,1,1,1,1,1,1,1,1,1,1,1,1,1,1,1,1,1,1,1,1,1,1,1,1,1,1,1,1,1,1,1,1,1,1,1,1,1,1,1,1,1,1,1,1,1});


isAsync=isAsync({0,0,0,0,0,0,0,0,0,0,0,0,0,0,0,0,0,0,0,0,0,0,0,0,0,0,0,0,0,0,0,0,0,0,0,0,0,0,0,0,0,0,0,0,0,0,0,0,0,0,0,0,0,0,0,0,0,0,0,0,0,0,0,0});
isMetaUnstable=isMetaUnstable({0,0,0,0,0,0,0,0,0,0,0,0,0,0,0,0,0,0,0,0,0,0,0,0,0,0,0,0,0,0,0,0,0,0,0,0,0,0,0,0,0,0,0,0,0,0,0,0,0,0,0,0,0,0,0,0,0,0,0,0,0,0,0,0});

creditDelayStdDevs=creditDelayStdDevs({0,0,0,0,0,0,0,0,0,0,0,0,0,0,0,0,0,0,0,0,0,0,0,0,0,0,0,0,0,0,0,0,0,0,0,0,0,0,0,0,0,0,0,0,0,0,0,0,0,0,0,0,0,0,0,0,0,0,0,0,0,0,0,0});
routingDelayStdDevs=routingDelayStdDevs({0,0,0,0,0,0,0,0,0,0,0,0,0,0,0,0,0,0,0,0,0,0,0,0,0,0,0,0,0,0,0,0,0,0,0,0,0,0,0,0,0,0,0,0,0,0,0,0,0,0,0,0,0,0,0,0,0,0,0,0,0,0,0,0});
vcAllocDelayStdDevs=vcAllocDelayStdDevs({0,0,0,0,0,0,0,0,0,0,0,0,0,0,0,0,0,0,0,0,0,0,0,0,0,0,0,0,0,0,0,0,0,0,0,0,0,0,0,0,0,0,0,0,0,0,0,0,0,0,0,0,0,0,0,0,0,0,0,0,0,0,0,0});
swAllocDelayStdDevs=swAllocDelayStdDevs({0,0,0,0,0,0,0,0,0,0,0,0,0,0,0,0,0,0,0,0,0,0,0,0,0,0,0,0,0,0,0,0,0,0,0,0,0,0,0,0,0,0,0,0,0,0,0,0,0,0,0,0,0,0,0,0,0,0,0,0,0,0,0,0});
stFinalDelayStdDevs=stFinalDelayStdDevs({0,0,0,0,0,0,0,0,0,0,0,0,0,0,0,0,0,0,0,0,0,0,0,0,0,0,0,0,0,0,0,0,0,0,0,0,0,0,0,0,0,0,0,0,0,0,0,0,0,0,0,0,0,0,0,0,0,0,0,0,0,0,0,0});

  
swAllocThresholds=swAllocThresholds({1,1,1,1,1,1,1,1,1,1,1,1,1,1,1,1,1,1,1,1,1,1,1,1,1,1,1,1,1,1,1,1,1,1,1,1,1,1,1,1,1,1,1,1,1,1,1,1,1,1,1,1,1,1,1,1,1,1,1,1,1,1,1,1});
swAllocThresholdStdDevs=swAllocThresholdStdDevs({0,0,0,0,0,0,0,0,0,0,0,0,0,0,0,0,0,0,0,0,0,0,0,0,0,0,0,0,0,0,0,0,0,0,0,0,0,0,0,0,0,0,0,0,0,0,0,0,0,0,0,0,0,0,0,0,0,0,0,0,0,0,0,0});
swAllocMetaStableThresholds=swAllocMetaStableThresholds({1,1,1,1,1,1,1,1,1,1,1,1,1,1,1,1,1,1,1,1,1,1,1,1,1,1,1,1,1,1,1,1,1,1,1,1,1,1,1,1,1,1,1,1,1,1,1,1,1,1,1,1,1,1,1,1,1,1,1,1,1,1,1,1});
swAllocMetaStableMaxPenalities=swAllocMetaStableMaxPenalities({0,0,0,0,0,0,0,0,0,0,0,0,0,0,0,0,0,0,0,0,0,0,0,0,0,0,0,0,0,0,0,0,0,0,0,0,0,0,0,0,0,0,0,0,0,0,0,0,0,0,0,0,0,0,0,0,0,0,0,0,0,0,0,0});

END Configuration File: test
rid:0 add uselessoutput chan64
rid:1 add uselessoutput chan64
rid:2 add uselessoutput chan64
rid:3 add uselessoutput chan64
rid:4 add uselessoutput chan64
rid:5 add uselessoutput chan64
rid:6 add uselessoutput chan64
rid:7 add uselessoutput chan64
rid:8 add uselessoutput chan64
rid:9 add uselessoutput chan64
rid:10 add uselessoutput chan64
rid:11 add uselessoutput chan64
rid:12 add uselessoutput chan64
rid:13 add uselessoutput chan64
rid:14 add uselessoutput chan64
rid:15 add uselessoutput chan64

Tick: 0M
===== Time: 10000 =====
Class 0:
Minimum packet latency = 6
Average packet latency = 34.268
Maximum packet latency = 205
Minimum network latency = 7
Average network latency = 25.9218
Maximum network latency = 137
Slowest packet = 1254
Minimum flit latency = 7
Average flit latency = 25.9218
Maximum flit latency = 137
Slowest flit = 19416
Minimum fragmentation = 0
Average fragmentation = 0
Maximum fragmentation = 0
Minimum injected packet rate = 0.1546 (at node 12)
Average injected packet rate = 0.158525
Maximum injected packet rate = 0.1637 (at node 13)
Minimum accepted packet rate = 0.1434 (at node 4)
Average accepted packet rate = 0.158181
Maximum accepted packet rate = 0.1655 (at node 8)
Minimum injected flit rate = 0.1546 (at node 12)
Average injected flit rate = 0.158525
Maximum injected flit rate = 0.1637 (at node 13)
Minimum accepted flit rate = 0.1434 (at node 4)
Average accepted flit rate = 0.158181
Maximum accepted flit rate = 0.1655 (at node 8)
Total number of injected packets = 25364
Total number of injected flits = 25364
Average injected packet length = 1
Total number of accepted packets = 25309
Total number of accepted flits = 25309
Average accepted packet length = 1
Total in-flight flits = 59 (0 measured)
class 0 latency change    = 1
class 0 throughput change = 1
Warmed up ...Time used is 10000 cycles
===== Time: 20000 =====
Class 0:
Minimum packet latency = 6
Average packet latency = 35.2321
Maximum packet latency = 215
Minimum network latency = 7
Average network latency = 26.1714
Maximum network latency = 132
Slowest packet = 25368
Minimum flit latency = 7
Average flit latency = 26.1846
Maximum flit latency = 132
Slowest flit = 29648
Minimum fragmentation = 0
Average fragmentation = 0
Maximum fragmentation = 0
Minimum injected packet rate = 0.1531 (at node 4)
Average injected packet rate = 0.160544
Maximum injected packet rate = 0.167 (at node 10)
Minimum accepted packet rate = 0.1547 (at node 0)
Average accepted packet rate = 0.160519
Maximum accepted packet rate = 0.1704 (at node 7)
Minimum injected flit rate = 0.1531 (at node 4)
Average injected flit rate = 0.160544
Maximum injected flit rate = 0.167 (at node 10)
Minimum accepted flit rate = 0.1547 (at node 0)
Average accepted flit rate = 0.160519
Maximum accepted flit rate = 0.1704 (at node 7)
Total number of injected packets = 25687
Total number of injected flits = 25687
Average injected packet length = 1
Total number of accepted packets = 25683
Total number of accepted flits = 25683
Average accepted packet length = 1
Total in-flight flits = 60 (60 measured)
class 0 latency change    = 0.0273636
class 0 throughput change = 0.0145622
===== Time: 30000 =====
Class 0:
Minimum packet latency = 6
Average packet latency = 33.0884
Maximum packet latency = 215
Minimum network latency = 7
Average network latency = 25.8134
Maximum network latency = 132
Slowest packet = 25368
Minimum flit latency = 7
Average flit latency = 25.8204
Maximum flit latency = 132
Slowest flit = 29648
Minimum fragmentation = 0
Average fragmentation = 0
Maximum fragmentation = 0
Minimum injected packet rate = 0.15485 (at node 11)
Average injected packet rate = 0.159575
Maximum injected packet rate = 0.1637 (at node 8)
Minimum accepted packet rate = 0.1553 (at node 0)
Average accepted packet rate = 0.159587
Maximum accepted packet rate = 0.1651 (at node 7)
Minimum injected flit rate = 0.15485 (at node 11)
Average injected flit rate = 0.159575
Maximum injected flit rate = 0.1637 (at node 8)
Minimum accepted flit rate = 0.1553 (at node 0)
Average accepted flit rate = 0.159587
Maximum accepted flit rate = 0.1651 (at node 7)
Total number of injected packets = 51064
Total number of injected flits = 51064
Average injected packet length = 1
Total number of accepted packets = 51068
Total number of accepted flits = 51068
Average accepted packet length = 1
Total in-flight flits = 56 (56 measured)
class 0 latency change    = 0.0647886
class 0 throughput change = 0.00583536
===== Time: 40000 =====
Class 0:
Minimum packet latency = 6
Average packet latency = 34.6283
Maximum packet latency = 270
Minimum network latency = 7
Average network latency = 26.0346
Maximum network latency = 157
Slowest packet = 25368
Minimum flit latency = 7
Average flit latency = 26.0391
Maximum flit latency = 157
Slowest flit = 89377
Minimum fragmentation = 0
Average fragmentation = 0
Maximum fragmentation = 0
Minimum injected packet rate = 0.1553 (at node 11)
Average injected packet rate = 0.159869
Maximum injected packet rate = 0.1636 (at node 0)
Minimum accepted packet rate = 0.156767 (at node 0)
Average accepted packet rate = 0.159835
Maximum accepted packet rate = 0.164033 (at node 7)
Minimum injected flit rate = 0.1553 (at node 11)
Average injected flit rate = 0.159869
Maximum injected flit rate = 0.1636 (at node 0)
Minimum accepted flit rate = 0.156767 (at node 0)
Average accepted flit rate = 0.159835
Maximum accepted flit rate = 0.164033 (at node 7)
Total number of injected packets = 76737
Total number of injected flits = 76737
Average injected packet length = 1
Total number of accepted packets = 76721
Total number of accepted flits = 76721
Average accepted packet length = 1
Total in-flight flits = 76 (76 measured)
class 0 latency change    = 0.0444702
class 0 throughput change = 0.00155107
===== Time: 50000 =====
Class 0:
Minimum packet latency = 6
Average packet latency = 34.7183
Maximum packet latency = 270
Minimum network latency = 7
Average network latency = 26.0674
Maximum network latency = 157
Slowest packet = 25368
Minimum flit latency = 7
Average flit latency = 26.0708
Maximum flit latency = 157
Slowest flit = 89377
Minimum fragmentation = 0
Average fragmentation = 0
Maximum fragmentation = 0
Minimum injected packet rate = 0.15685 (at node 6)
Average injected packet rate = 0.159623
Maximum injected packet rate = 0.162875 (at node 0)
Minimum accepted packet rate = 0.156875 (at node 0)
Average accepted packet rate = 0.159614
Maximum accepted packet rate = 0.163875 (at node 7)
Minimum injected flit rate = 0.15685 (at node 6)
Average injected flit rate = 0.159623
Maximum injected flit rate = 0.162875 (at node 0)
Minimum accepted flit rate = 0.156875 (at node 0)
Average accepted flit rate = 0.159614
Maximum accepted flit rate = 0.163875 (at node 7)
Total number of injected packets = 102159
Total number of injected flits = 102159
Average injected packet length = 1
Total number of accepted packets = 102153
Total number of accepted flits = 102153
Average accepted packet length = 1
Total in-flight flits = 65 (65 measured)
class 0 latency change    = 0.00259103
class 0 throughput change = 0.00138681
===== Time: 60000 =====
Class 0:
Minimum packet latency = 6
Average packet latency = 34.6263
Maximum packet latency = 270
Minimum network latency = 7
Average network latency = 26.0278
Maximum network latency = 157
Slowest packet = 25368
Minimum flit latency = 7
Average flit latency = 26.0305
Maximum flit latency = 157
Slowest flit = 89377
Minimum fragmentation = 0
Average fragmentation = 0
Maximum fragmentation = 0
Minimum injected packet rate = 0.15674 (at node 6)
Average injected packet rate = 0.159823
Maximum injected packet rate = 0.16276 (at node 1)
Minimum accepted packet rate = 0.15708 (at node 0)
Average accepted packet rate = 0.15981
Maximum accepted packet rate = 0.1634 (at node 7)
Minimum injected flit rate = 0.15674 (at node 6)
Average injected flit rate = 0.159823
Maximum injected flit rate = 0.16276 (at node 1)
Minimum accepted flit rate = 0.15708 (at node 0)
Average accepted flit rate = 0.15981
Maximum accepted flit rate = 0.1634 (at node 7)
Total number of injected packets = 127858
Total number of injected flits = 127858
Average injected packet length = 1
Total number of accepted packets = 127848
Total number of accepted flits = 127848
Average accepted packet length = 1
Total in-flight flits = 68 (68 measured)
class 0 latency change    = 0.00265515
class 0 throughput change = 0.00122607
===== Time: 70000 =====
Class 0:
Minimum packet latency = 6
Average packet latency = 34.5568
Maximum packet latency = 270
Minimum network latency = 7
Average network latency = 26.0252
Maximum network latency = 157
Slowest packet = 25368
Minimum flit latency = 7
Average flit latency = 26.0275
Maximum flit latency = 157
Slowest flit = 89377
Minimum fragmentation = 0
Average fragmentation = 0
Maximum fragmentation = 0
Minimum injected packet rate = 0.157117 (at node 6)
Average injected packet rate = 0.159994
Maximum injected packet rate = 0.16275 (at node 1)
Minimum accepted packet rate = 0.15765 (at node 8)
Average accepted packet rate = 0.159979
Maximum accepted packet rate = 0.1625 (at node 7)
Minimum injected flit rate = 0.157117 (at node 6)
Average injected flit rate = 0.159994
Maximum injected flit rate = 0.16275 (at node 1)
Minimum accepted flit rate = 0.15765 (at node 8)
Average accepted flit rate = 0.159979
Maximum accepted flit rate = 0.1625 (at node 7)
Total number of injected packets = 153594
Total number of injected flits = 153594
Average injected packet length = 1
Total number of accepted packets = 153580
Total number of accepted flits = 153580
Average accepted packet length = 1
Total in-flight flits = 72 (72 measured)
class 0 latency change    = 0.00201209
class 0 throughput change = 0.00105743
===== Time: 80000 =====
Class 0:
Minimum packet latency = 6
Average packet latency = 34.4711
Maximum packet latency = 270
Minimum network latency = 7
Average network latency = 26.0108
Maximum network latency = 157
Slowest packet = 25368
Minimum flit latency = 7
Average flit latency = 26.0127
Maximum flit latency = 157
Slowest flit = 89377
Minimum fragmentation = 0
Average fragmentation = 0
Maximum fragmentation = 0
Minimum injected packet rate = 0.157414 (at node 6)
Average injected packet rate = 0.160006
Maximum injected packet rate = 0.164143 (at node 1)
Minimum accepted packet rate = 0.157486 (at node 0)
Average accepted packet rate = 0.160004
Maximum accepted packet rate = 0.162743 (at node 9)
Minimum injected flit rate = 0.157414 (at node 6)
Average injected flit rate = 0.160006
Maximum injected flit rate = 0.164143 (at node 1)
Minimum accepted flit rate = 0.157486 (at node 0)
Average accepted flit rate = 0.160004
Maximum accepted flit rate = 0.162743 (at node 9)
Total number of injected packets = 179207
Total number of injected flits = 179207
Average injected packet length = 1
Total number of accepted packets = 179205
Total number of accepted flits = 179205
Average accepted packet length = 1
Total in-flight flits = 61 (61 measured)
class 0 latency change    = 0.00248564
class 0 throughput change = 0.000158106
===== Time: 90000 =====
Class 0:
Minimum packet latency = 6
Average packet latency = 36.6432
Maximum packet latency = 407
Minimum network latency = 7
Average network latency = 26.1695
Maximum network latency = 163
Slowest packet = 25368
Minimum flit latency = 7
Average flit latency = 26.1712
Maximum flit latency = 163
Slowest flit = 223942
Minimum fragmentation = 0
Average fragmentation = 0
Maximum fragmentation = 0
Minimum injected packet rate = 0.15815 (at node 6)
Average injected packet rate = 0.160234
Maximum injected packet rate = 0.16325 (at node 1)
Minimum accepted packet rate = 0.15725 (at node 0)
Average accepted packet rate = 0.160222
Maximum accepted packet rate = 0.163375 (at node 7)
Minimum injected flit rate = 0.15815 (at node 6)
Average injected flit rate = 0.160234
Maximum injected flit rate = 0.16325 (at node 1)
Minimum accepted flit rate = 0.15725 (at node 0)
Average accepted flit rate = 0.160222
Maximum accepted flit rate = 0.163375 (at node 7)
Total number of injected packets = 205100
Total number of injected flits = 205100
Average injected packet length = 1
Total number of accepted packets = 205084
Total number of accepted flits = 205084
Average accepted packet length = 1
Total in-flight flits = 76 (76 measured)
class 0 latency change    = 0.0592756
class 0 throughput change = 0.00135694
===== Time: 100000 =====
Class 0:
Minimum packet latency = 6
Average packet latency = 36.7826
Maximum packet latency = 407
Minimum network latency = 7
Average network latency = 26.1531
Maximum network latency = 163
Slowest packet = 25368
Minimum flit latency = 7
Average flit latency = 26.1545
Maximum flit latency = 163
Slowest flit = 223942
Minimum fragmentation = 0
Average fragmentation = 0
Maximum fragmentation = 0
Minimum injected packet rate = 0.158211 (at node 6)
Average injected packet rate = 0.160201
Maximum injected packet rate = 0.162467 (at node 1)
Minimum accepted packet rate = 0.157711 (at node 0)
Average accepted packet rate = 0.160194
Maximum accepted packet rate = 0.163256 (at node 7)
Minimum injected flit rate = 0.158211 (at node 6)
Average injected flit rate = 0.160201
Maximum injected flit rate = 0.162467 (at node 1)
Minimum accepted flit rate = 0.157711 (at node 0)
Average accepted flit rate = 0.160194
Maximum accepted flit rate = 0.163256 (at node 7)
Total number of injected packets = 230690
Total number of injected flits = 230690
Average injected packet length = 1
Total number of accepted packets = 230680
Total number of accepted flits = 230680
Average accepted packet length = 1
Total in-flight flits = 69 (69 measured)
class 0 latency change    = 0.00379106
class 0 throughput change = 0.000171233
Draining all recorded packets ...
Draining remaining packets ...
Time taken is 100205 cycles
====== Traffic class 0 ======

Total number of flits generated = 256445, changed lanes = 0
Overall minimum packet latency = 6 (1 samples)
Overall average packet latency = 36.7928 (1 samples)
Overall maximum packet latency = 407 (1 samples)
Overall minimum network latency = 7 (1 samples)
Overall average network latency = 26.1564 (1 samples)
Overall maximum network latency = 163 (1 samples)
Overall minimum flit latency = 7 (1 samples)
Overall average flit latency = 26.1589 (1 samples)
Overall maximum flit latency = 163 (1 samples)
Overall minimum fragmentation = 0 (1 samples)
Overall average fragmentation = 0 (1 samples)
Overall maximum fragmentation = 0 (1 samples)
Overall minimum injected packet rate = 0.158211 (1 samples)
Overall average injected packet rate = 0.160201 (1 samples)
Overall maximum injected packet rate = 0.162467 (1 samples)
Overall minimum accepted packet rate = 0.157711 (1 samples)
Overall average accepted packet rate = 0.160194 (1 samples)
Overall maximum accepted packet rate = 0.163256 (1 samples)
Overall minimum injected flit rate = 0.158211 (1 samples)
Overall average injected flit rate = 0.160201 (1 samples)
Overall maximum injected flit rate = 0.162467 (1 samples)
Overall minimum accepted flit rate = 0.157711 (1 samples)
Overall average accepted flit rate = 0.160194 (1 samples)
Overall maximum accepted flit rate = 0.163256 (1 samples)
Overall average injected packet size = 1 (1 samples)
Overall average accepted packet size = 1 (1 samples)
Overall average hops = 3.49971 (1 samples)
Overall throughput of the network (flits/cycle) = 2.84939
Overall throughput of the network (packets/cycle) = 2.84939
CSV Result Header , avgFLat,avgFInjRate
CSV Result ,26.1589,0.160201

Power Report Header, Frequency, Time, StaticIQ, DynamicIQ, StaticVC, DynamicVC, StaticSA, DynamicSA, StaticST, DynamicST, StaticLink, DynamicLink, NoFlits, ePerFlit
Power Report,3.9e+08,100205,0.0329687,0.0452099,0.0018744,0.00133108,0.000562321,0.00125694,0.119399,0.0157458,0.0226366,0.0364556,256445,2.79305e-10

*****************************************
Total run time 12.5389
generate:0x7ffeb9efa260
delete:0x7ffeb9efa260
L = 2 K = 8.1 M = 2 N = 1
-----------------------------------------
- OCN Power Summary
- Completion Time:         100205
- Flit Widths:            64
- Channel Wire Power:      6.31413
- Channel Clock Power:     0.371137
- Channel Retiming Power:  0.0784496
- Channel Leakage Power:   0.139912
- Input Read Power:        0.130902
- Input Write Power:       0.130902
- Input Leakage Power:     0.0283116
- Switch Power:            0.293388
- Switch Control Power:    0.146967
- Switch Leakage Power:    0.192763
- Output DFF Power:        0.0305091
- Output Clk Power:        0.181781
- Output Control Power:    0.0157452
- Total Power:             8.05489
-----------------------------------------

-----------------------------------------
- OCN Area Summary
- Channel Area:  0.0278095
- Switch  Area:  0.060398
- Input  Area:   0.030199
- Output  Area:  0.00503316
- Total Area:    0.12344
-----------------------------------------
CSV Power Result Header , Completion Time, Channel Wire, Channel Clock, Channel Retiming, Channel Leakage, Input Read, Input Write, Input Leakage, Switch Power, Switch Control, Switch Leakage, Output DFF, Output Clk, Output Control
CSV Power Result , 100205, 6.31413, 0.371137, 0.0784496, 0.139912, 0.130902, 0.130902, 0.0283116, 0.293388, 0.146967, 0.192763, 0.0305091, 0.181781, 0.0157452
delete:0x7ffeb9efa260
delete:0x7ffeb9efa260
