generate:0x7ffeb465fb00
generate:0x7ffeb465fc70
BEGIN Configuration File: test
//topology
topology = mesh;
k = 4;
n = 2;
type = interposer;
// Routing
routing_function = dor;

// Flow control
num_vcs     = 2;
vc_buf_size = 8;
wait_for_tail_credit = 1;
hold_switch_for_packet = 1;

// Router architecture
vc_allocator = islip;
sw_allocator = islip;
alloc_iters  = 1;

credit_delay   = 0;
routing_delay  = 1;
vc_alloc_delay = 1;
sw_alloc_delay = 1;
st_final_delay = 1;

input_speedup     = 1;
output_speedup    = 1;
internal_speedup  = 1.0;
vc_busy_when_full = 0;


//granulaity
latency_thres=20000.0;
deadlock_warn_timeout=20000;
traceStretch=3;

//gating
doGating=0;
sleepThreshold=40;
breakEvenThreshold=80;



//Syn Traffic
sim_type=latency;
traffic=uniform;
packet_size = 1;
sample_period=10000;
warmup_periods=1;
max_samples=10;
injection_rate=0.03;

//creditDelays=creditDelays({1,1,1,1,1,1,1,1,1,1,1,1,1,1,1,1,1,1,1,1,1,1,1,1,1,1,1,1,1,1,1,1,1,1,1,1,1,1,1,1,1,1,1,1,1,1,1,1,1,1,1,1,1,1,1,1,1,1,1,1,1,1,1,1});
//routingDelays=routingDelays({2,2,2,2,2,2,2,2,2,2,2,2,2,2,2,2,2,2,2,2,2,2,2,2,2,2,2,2,2,2,2,2,2,2,2,2,2,2,2,2,2,2,2,2,2,2,2,2,2,2,2,2,2,2,2,2,2,2,2,2,2,2,2,2});
//vcAllocDelays=vcAllocDelays({2,2,2,2,2,2,2,2,2,2,2,2,2,2,2,2,2,2,2,2,2,2,2,2,2,2,2,2,2,2,2,2,2,2,2,2,2,2,2,2,2,2,2,2,2,2,2,2,2,2,2,2,2,2,2,2,2,2,2,2,2,2,2,2});

creditDelays=creditDelays({0,0,0,0,0,0,0,0,0,0,0,0,0,0,0,0,0,0,0,0,0,0,0,0,0,0,0,0,0,0,0,0,0,0,0,0,0,0,0,0,0,0,0,0,0,0,0,0,0,0,0,0,0,0,0,0,0,0,0,0,0,0,0,0}});
routingDelays=routingDelays({1,1,1,1,1,1,1,1,1,1,1,1,1,1,1,1,1,1,1,1,1,1,1,1,1,1,1,1,1,1,1,1,1,1,1,1,1,1,1,1,1,1,1,1,1,1,1,1,1,1,1,1,1,1,1,1,1,1,1,1,1,1,1,1});
vcAllocDelays=vcAllocDelays({1,1,1,1,1,1,1,1,1,1,1,1,1,1,1,1,1,1,1,1,1,1,1,1,1,1,1,1,1,1,1,1,1,1,1,1,1,1,1,1,1,1,1,1,1,1,1,1,1,1,1,1,1,1,1,1,1,1,1,1,1,1,1,1});
swAllocDelays=swAllocDelays({1,1,1,1,1,1,1,1,1,1,1,1,1,1,1,1,1,1,1,1,1,1,1,1,1,1,1,1,1,1,1,1,1,1,1,1,1,1,1,1,1,1,1,1,1,1,1,1,1,1,1,1,1,1,1,1,1,1,1,1,1,1,1,1});
stFinalDelays=stFinalDelays({1,1,1,1,1,1,1,1,1,1,1,1,1,1,1,1,1,1,1,1,1,1,1,1,1,1,1,1,1,1,1,1,1,1,1,1,1,1,1,1,1,1,1,1,1,1,1,1,1,1,1,1,1,1,1,1,1,1,1,1,1,1,1,1});


isAsync=isAsync({0,0,0,0,0,0,0,0,0,0,0,0,0,0,0,0,0,0,0,0,0,0,0,0,0,0,0,0,0,0,0,0,0,0,0,0,0,0,0,0,0,0,0,0,0,0,0,0,0,0,0,0,0,0,0,0,0,0,0,0,0,0,0,0});
isMetaUnstable=isMetaUnstable({0,0,0,0,0,0,0,0,0,0,0,0,0,0,0,0,0,0,0,0,0,0,0,0,0,0,0,0,0,0,0,0,0,0,0,0,0,0,0,0,0,0,0,0,0,0,0,0,0,0,0,0,0,0,0,0,0,0,0,0,0,0,0,0});

creditDelayStdDevs=creditDelayStdDevs({0,0,0,0,0,0,0,0,0,0,0,0,0,0,0,0,0,0,0,0,0,0,0,0,0,0,0,0,0,0,0,0,0,0,0,0,0,0,0,0,0,0,0,0,0,0,0,0,0,0,0,0,0,0,0,0,0,0,0,0,0,0,0,0});
routingDelayStdDevs=routingDelayStdDevs({0,0,0,0,0,0,0,0,0,0,0,0,0,0,0,0,0,0,0,0,0,0,0,0,0,0,0,0,0,0,0,0,0,0,0,0,0,0,0,0,0,0,0,0,0,0,0,0,0,0,0,0,0,0,0,0,0,0,0,0,0,0,0,0});
vcAllocDelayStdDevs=vcAllocDelayStdDevs({0,0,0,0,0,0,0,0,0,0,0,0,0,0,0,0,0,0,0,0,0,0,0,0,0,0,0,0,0,0,0,0,0,0,0,0,0,0,0,0,0,0,0,0,0,0,0,0,0,0,0,0,0,0,0,0,0,0,0,0,0,0,0,0});
swAllocDelayStdDevs=swAllocDelayStdDevs({0,0,0,0,0,0,0,0,0,0,0,0,0,0,0,0,0,0,0,0,0,0,0,0,0,0,0,0,0,0,0,0,0,0,0,0,0,0,0,0,0,0,0,0,0,0,0,0,0,0,0,0,0,0,0,0,0,0,0,0,0,0,0,0});
stFinalDelayStdDevs=stFinalDelayStdDevs({0,0,0,0,0,0,0,0,0,0,0,0,0,0,0,0,0,0,0,0,0,0,0,0,0,0,0,0,0,0,0,0,0,0,0,0,0,0,0,0,0,0,0,0,0,0,0,0,0,0,0,0,0,0,0,0,0,0,0,0,0,0,0,0});

  
swAllocThresholds=swAllocThresholds({1,1,1,1,1,1,1,1,1,1,1,1,1,1,1,1,1,1,1,1,1,1,1,1,1,1,1,1,1,1,1,1,1,1,1,1,1,1,1,1,1,1,1,1,1,1,1,1,1,1,1,1,1,1,1,1,1,1,1,1,1,1,1,1});
swAllocThresholdStdDevs=swAllocThresholdStdDevs({0,0,0,0,0,0,0,0,0,0,0,0,0,0,0,0,0,0,0,0,0,0,0,0,0,0,0,0,0,0,0,0,0,0,0,0,0,0,0,0,0,0,0,0,0,0,0,0,0,0,0,0,0,0,0,0,0,0,0,0,0,0,0,0});
swAllocMetaStableThresholds=swAllocMetaStableThresholds({1,1,1,1,1,1,1,1,1,1,1,1,1,1,1,1,1,1,1,1,1,1,1,1,1,1,1,1,1,1,1,1,1,1,1,1,1,1,1,1,1,1,1,1,1,1,1,1,1,1,1,1,1,1,1,1,1,1,1,1,1,1,1,1});
swAllocMetaStableMaxPenalities=swAllocMetaStableMaxPenalities({0,0,0,0,0,0,0,0,0,0,0,0,0,0,0,0,0,0,0,0,0,0,0,0,0,0,0,0,0,0,0,0,0,0,0,0,0,0,0,0,0,0,0,0,0,0,0,0,0,0,0,0,0,0,0,0,0,0,0,0,0,0,0,0});

END Configuration File: test
rid:0 add uselessoutput chan64
rid:1 add uselessoutput chan64
rid:2 add uselessoutput chan64
rid:3 add uselessoutput chan64
rid:4 add uselessoutput chan64
rid:5 add uselessoutput chan64
rid:6 add uselessoutput chan64
rid:7 add uselessoutput chan64
rid:8 add uselessoutput chan64
rid:9 add uselessoutput chan64
rid:10 add uselessoutput chan64
rid:11 add uselessoutput chan64
rid:12 add uselessoutput chan64
rid:13 add uselessoutput chan64
rid:14 add uselessoutput chan64
rid:15 add uselessoutput chan64

Tick: 0M
===== Time: 10000 =====
Class 0:
Minimum packet latency = 6
Average packet latency = 18.6087
Maximum packet latency = 42
Minimum network latency = 7
Average network latency = 19.5939
Maximum network latency = 43
Slowest packet = 4177
Minimum flit latency = 7
Average flit latency = 19.5939
Maximum flit latency = 43
Slowest flit = 1913
Minimum fragmentation = 0
Average fragmentation = 0
Maximum fragmentation = 0
Minimum injected packet rate = 0.0263 (at node 14)
Average injected packet rate = 0.030125
Maximum injected packet rate = 0.0329 (at node 15)
Minimum accepted packet rate = 0.0275 (at node 4)
Average accepted packet rate = 0.0300562
Maximum accepted packet rate = 0.0327 (at node 15)
Minimum injected flit rate = 0.0263 (at node 14)
Average injected flit rate = 0.030125
Maximum injected flit rate = 0.0329 (at node 15)
Minimum accepted flit rate = 0.0275 (at node 4)
Average accepted flit rate = 0.0300562
Maximum accepted flit rate = 0.0327 (at node 15)
Total number of injected packets = 4820
Total number of injected flits = 4820
Average injected packet length = 1
Total number of accepted packets = 4809
Total number of accepted flits = 4809
Average accepted packet length = 1
Total in-flight flits = 11 (0 measured)
class 0 latency change    = 1
class 0 throughput change = 1
Warmed up ...Time used is 10000 cycles
===== Time: 20000 =====
Class 0:
Minimum packet latency = 6
Average packet latency = 18.7765
Maximum packet latency = 40
Minimum network latency = 7
Average network latency = 19.7649
Maximum network latency = 41
Slowest packet = 8530
Minimum flit latency = 7
Average flit latency = 19.7707
Maximum flit latency = 41
Slowest flit = 4984
Minimum fragmentation = 0
Average fragmentation = 0
Maximum fragmentation = 0
Minimum injected packet rate = 0.0266 (at node 2)
Average injected packet rate = 0.0298313
Maximum injected packet rate = 0.0328 (at node 11)
Minimum accepted packet rate = 0.0259 (at node 4)
Average accepted packet rate = 0.0298188
Maximum accepted packet rate = 0.0334 (at node 7)
Minimum injected flit rate = 0.0266 (at node 2)
Average injected flit rate = 0.0298313
Maximum injected flit rate = 0.0328 (at node 11)
Minimum accepted flit rate = 0.0259 (at node 4)
Average accepted flit rate = 0.0298188
Maximum accepted flit rate = 0.0334 (at node 7)
Total number of injected packets = 4773
Total number of injected flits = 4773
Average injected packet length = 1
Total number of accepted packets = 4771
Total number of accepted flits = 4771
Average accepted packet length = 1
Total in-flight flits = 13 (13 measured)
class 0 latency change    = 0.00893779
class 0 throughput change = 0.00796479
===== Time: 30000 =====
Class 0:
Minimum packet latency = 6
Average packet latency = 18.7155
Maximum packet latency = 42
Minimum network latency = 7
Average network latency = 19.7015
Maximum network latency = 43
Slowest packet = 11104
Minimum flit latency = 7
Average flit latency = 19.7045
Maximum flit latency = 43
Slowest flit = 10581
Minimum fragmentation = 0
Average fragmentation = 0
Maximum fragmentation = 0
Minimum injected packet rate = 0.027 (at node 2)
Average injected packet rate = 0.0297469
Maximum injected packet rate = 0.03225 (at node 12)
Minimum accepted packet rate = 0.027 (at node 4)
Average accepted packet rate = 0.0297594
Maximum accepted packet rate = 0.03215 (at node 8)
Minimum injected flit rate = 0.027 (at node 2)
Average injected flit rate = 0.0297469
Maximum injected flit rate = 0.03225 (at node 12)
Minimum accepted flit rate = 0.027 (at node 4)
Average accepted flit rate = 0.0297594
Maximum accepted flit rate = 0.03215 (at node 8)
Total number of injected packets = 9519
Total number of injected flits = 9519
Average injected packet length = 1
Total number of accepted packets = 9523
Total number of accepted flits = 9523
Average accepted packet length = 1
Total in-flight flits = 7 (7 measured)
class 0 latency change    = 0.00325683
class 0 throughput change = 0.00199517
===== Time: 40000 =====
Class 0:
Minimum packet latency = 6
Average packet latency = 18.6698
Maximum packet latency = 42
Minimum network latency = 7
Average network latency = 19.6532
Maximum network latency = 43
Slowest packet = 11104
Minimum flit latency = 7
Average flit latency = 19.6552
Maximum flit latency = 43
Slowest flit = 10581
Minimum fragmentation = 0
Average fragmentation = 0
Maximum fragmentation = 0
Minimum injected packet rate = 0.0283333 (at node 2)
Average injected packet rate = 0.029775
Maximum injected packet rate = 0.0321 (at node 12)
Minimum accepted packet rate = 0.0271667 (at node 4)
Average accepted packet rate = 0.0297812
Maximum accepted packet rate = 0.0311667 (at node 0)
Minimum injected flit rate = 0.0283333 (at node 2)
Average injected flit rate = 0.029775
Maximum injected flit rate = 0.0321 (at node 12)
Minimum accepted flit rate = 0.0271667 (at node 4)
Average accepted flit rate = 0.0297812
Maximum accepted flit rate = 0.0311667 (at node 0)
Total number of injected packets = 14292
Total number of injected flits = 14292
Average injected packet length = 1
Total number of accepted packets = 14295
Total number of accepted flits = 14295
Average accepted packet length = 1
Total in-flight flits = 8 (8 measured)
class 0 latency change    = 0.00245032
class 0 throughput change = 0.000734523
===== Time: 50000 =====
Class 0:
Minimum packet latency = 6
Average packet latency = 18.6987
Maximum packet latency = 43
Minimum network latency = 7
Average network latency = 19.6829
Maximum network latency = 44
Slowest packet = 21035
Minimum flit latency = 7
Average flit latency = 19.6843
Maximum flit latency = 44
Slowest flit = 21035
Minimum fragmentation = 0
Average fragmentation = 0
Maximum fragmentation = 0
Minimum injected packet rate = 0.0287 (at node 2)
Average injected packet rate = 0.0299844
Maximum injected packet rate = 0.0315 (at node 12)
Minimum accepted packet rate = 0.02725 (at node 4)
Average accepted packet rate = 0.0299922
Maximum accepted packet rate = 0.031525 (at node 8)
Minimum injected flit rate = 0.0287 (at node 2)
Average injected flit rate = 0.0299844
Maximum injected flit rate = 0.0315 (at node 12)
Minimum accepted flit rate = 0.02725 (at node 4)
Average accepted flit rate = 0.0299922
Maximum accepted flit rate = 0.031525 (at node 8)
Total number of injected packets = 19190
Total number of injected flits = 19190
Average injected packet length = 1
Total number of accepted packets = 19195
Total number of accepted flits = 19195
Average accepted packet length = 1
Total in-flight flits = 6 (6 measured)
class 0 latency change    = 0.00154475
class 0 throughput change = 0.00703308
===== Time: 60000 =====
Class 0:
Minimum packet latency = 6
Average packet latency = 18.6843
Maximum packet latency = 43
Minimum network latency = 7
Average network latency = 19.6681
Maximum network latency = 44
Slowest packet = 21035
Minimum flit latency = 7
Average flit latency = 19.6693
Maximum flit latency = 44
Slowest flit = 21035
Minimum fragmentation = 0
Average fragmentation = 0
Maximum fragmentation = 0
Minimum injected packet rate = 0.02878 (at node 1)
Average injected packet rate = 0.0298925
Maximum injected packet rate = 0.03106 (at node 13)
Minimum accepted packet rate = 0.02698 (at node 4)
Average accepted packet rate = 0.0298913
Maximum accepted packet rate = 0.03098 (at node 7)
Minimum injected flit rate = 0.02878 (at node 1)
Average injected flit rate = 0.0298925
Maximum injected flit rate = 0.03106 (at node 13)
Minimum accepted flit rate = 0.02698 (at node 4)
Average accepted flit rate = 0.0298913
Maximum accepted flit rate = 0.03098 (at node 7)
Total number of injected packets = 23914
Total number of injected flits = 23914
Average injected packet length = 1
Total number of accepted packets = 23913
Total number of accepted flits = 23913
Average accepted packet length = 1
Total in-flight flits = 12 (12 measured)
class 0 latency change    = 0.000770851
class 0 throughput change = 0.00337682
===== Time: 70000 =====
Class 0:
Minimum packet latency = 6
Average packet latency = 18.651
Maximum packet latency = 43
Minimum network latency = 7
Average network latency = 19.6338
Maximum network latency = 44
Slowest packet = 21035
Minimum flit latency = 7
Average flit latency = 19.6348
Maximum flit latency = 44
Slowest flit = 21035
Minimum fragmentation = 0
Average fragmentation = 0
Maximum fragmentation = 0
Minimum injected packet rate = 0.0284833 (at node 3)
Average injected packet rate = 0.0299
Maximum injected packet rate = 0.0309333 (at node 13)
Minimum accepted packet rate = 0.02715 (at node 4)
Average accepted packet rate = 0.0299042
Maximum accepted packet rate = 0.031 (at node 7)
Minimum injected flit rate = 0.0284833 (at node 3)
Average injected flit rate = 0.0299
Maximum injected flit rate = 0.0309333 (at node 13)
Minimum accepted flit rate = 0.02715 (at node 4)
Average accepted flit rate = 0.0299042
Maximum accepted flit rate = 0.031 (at node 7)
Total number of injected packets = 28704
Total number of injected flits = 28704
Average injected packet length = 1
Total number of accepted packets = 28708
Total number of accepted flits = 28708
Average accepted packet length = 1
Total in-flight flits = 7 (7 measured)
class 0 latency change    = 0.00178427
class 0 throughput change = 0.000431935
===== Time: 80000 =====
Class 0:
Minimum packet latency = 6
Average packet latency = 18.665
Maximum packet latency = 43
Minimum network latency = 7
Average network latency = 19.6473
Maximum network latency = 44
Slowest packet = 38118
Minimum flit latency = 7
Average flit latency = 19.6482
Maximum flit latency = 44
Slowest flit = 21035
Minimum fragmentation = 0
Average fragmentation = 0
Maximum fragmentation = 0
Minimum injected packet rate = 0.0285857 (at node 3)
Average injected packet rate = 0.0299411
Maximum injected packet rate = 0.0310143 (at node 9)
Minimum accepted packet rate = 0.0278286 (at node 4)
Average accepted packet rate = 0.0299411
Maximum accepted packet rate = 0.0311143 (at node 7)
Minimum injected flit rate = 0.0285857 (at node 3)
Average injected flit rate = 0.0299411
Maximum injected flit rate = 0.0310143 (at node 9)
Minimum accepted flit rate = 0.0278286 (at node 4)
Average accepted flit rate = 0.0299411
Maximum accepted flit rate = 0.0311143 (at node 7)
Total number of injected packets = 33534
Total number of injected flits = 33534
Average injected packet length = 1
Total number of accepted packets = 33534
Total number of accepted flits = 33534
Average accepted packet length = 1
Total in-flight flits = 11 (11 measured)
class 0 latency change    = 0.000750192
class 0 throughput change = 0.00123258
===== Time: 90000 =====
Class 0:
Minimum packet latency = 6
Average packet latency = 18.6649
Maximum packet latency = 43
Minimum network latency = 7
Average network latency = 19.6459
Maximum network latency = 44
Slowest packet = 38118
Minimum flit latency = 7
Average flit latency = 19.6466
Maximum flit latency = 44
Slowest flit = 21035
Minimum fragmentation = 0
Average fragmentation = 0
Maximum fragmentation = 0
Minimum injected packet rate = 0.028525 (at node 1)
Average injected packet rate = 0.0300883
Maximum injected packet rate = 0.031075 (at node 13)
Minimum accepted packet rate = 0.028525 (at node 4)
Average accepted packet rate = 0.0300867
Maximum accepted packet rate = 0.03165 (at node 7)
Minimum injected flit rate = 0.028525 (at node 1)
Average injected flit rate = 0.0300883
Maximum injected flit rate = 0.031075 (at node 13)
Minimum accepted flit rate = 0.028525 (at node 4)
Average accepted flit rate = 0.0300867
Maximum accepted flit rate = 0.03165 (at node 7)
Total number of injected packets = 38513
Total number of injected flits = 38513
Average injected packet length = 1
Total number of accepted packets = 38511
Total number of accepted flits = 38511
Average accepted packet length = 1
Total in-flight flits = 13 (13 measured)
class 0 latency change    = 6.38323e-06
class 0 throughput change = 0.00484092
===== Time: 100000 =====
Class 0:
Minimum packet latency = 6
Average packet latency = 18.6713
Maximum packet latency = 43
Minimum network latency = 7
Average network latency = 19.6525
Maximum network latency = 44
Slowest packet = 38118
Minimum flit latency = 7
Average flit latency = 19.6532
Maximum flit latency = 44
Slowest flit = 21035
Minimum fragmentation = 0
Average fragmentation = 0
Maximum fragmentation = 0
Minimum injected packet rate = 0.0286667 (at node 1)
Average injected packet rate = 0.0300382
Maximum injected packet rate = 0.0308111 (at node 13)
Minimum accepted packet rate = 0.0284556 (at node 4)
Average accepted packet rate = 0.0300424
Maximum accepted packet rate = 0.0315778 (at node 7)
Minimum injected flit rate = 0.0286667 (at node 1)
Average injected flit rate = 0.0300382
Maximum injected flit rate = 0.0308111 (at node 13)
Minimum accepted flit rate = 0.0284556 (at node 4)
Average accepted flit rate = 0.0300424
Maximum accepted flit rate = 0.0315778 (at node 7)
Total number of injected packets = 43255
Total number of injected flits = 43255
Average injected packet length = 1
Total number of accepted packets = 43261
Total number of accepted flits = 43261
Average accepted packet length = 1
Total in-flight flits = 5 (5 measured)
class 0 latency change    = 0.000342932
class 0 throughput change = 0.0014765
Draining all recorded packets ...
Draining remaining packets ...
Time taken is 100043 cycles
====== Traffic class 0 ======

Total number of flits generated = 48080, changed lanes = 0
Overall minimum packet latency = 6 (1 samples)
Overall average packet latency = 18.6717 (1 samples)
Overall maximum packet latency = 43 (1 samples)
Overall minimum network latency = 7 (1 samples)
Overall average network latency = 19.6529 (1 samples)
Overall maximum network latency = 44 (1 samples)
Overall minimum flit latency = 7 (1 samples)
Overall average flit latency = 19.6543 (1 samples)
Overall maximum flit latency = 44 (1 samples)
Overall minimum fragmentation = 0 (1 samples)
Overall average fragmentation = 0 (1 samples)
Overall maximum fragmentation = 0 (1 samples)
Overall minimum injected packet rate = 0.0286667 (1 samples)
Overall average injected packet rate = 0.0300382 (1 samples)
Overall maximum injected packet rate = 0.0308111 (1 samples)
Overall minimum accepted packet rate = 0.0284556 (1 samples)
Overall average accepted packet rate = 0.0300424 (1 samples)
Overall maximum accepted packet rate = 0.0315778 (1 samples)
Overall minimum injected flit rate = 0.0286667 (1 samples)
Overall average injected flit rate = 0.0300382 (1 samples)
Overall maximum injected flit rate = 0.0308111 (1 samples)
Overall minimum accepted flit rate = 0.0284556 (1 samples)
Overall average accepted flit rate = 0.0300424 (1 samples)
Overall maximum accepted flit rate = 0.0315778 (1 samples)
Overall average injected packet size = 1 (1 samples)
Overall average accepted packet size = 1 (1 samples)
Overall average hops = 3.50477 (1 samples)
Overall throughput of the network (flits/cycle) = 0.534222
Overall throughput of the network (packets/cycle) = 0.534222
CSV Result Header , avgFLat,avgFInjRate
CSV Result ,19.6543,0.0300382

Power Report Header, Frequency, Time, StaticIQ, DynamicIQ, StaticVC, DynamicVC, StaticSA, DynamicSA, StaticST, DynamicST, StaticLink, DynamicLink, NoFlits, ePerFlit
Power Report,3.9e+08,100043,0.0329687,0.00849907,0.0018744,0.000249764,0.000562321,0.000233794,0.119399,0.00293288,0.0226366,0.00685334,48080,1.04817e-09

*****************************************
Total run time 4.1684
generate:0x7ffeb465f570
delete:0x7ffeb465f570
L = 2 K = 8.1 M = 2 N = 1
-----------------------------------------
- OCN Power Summary
- Completion Time:         100043
- Flit Widths:            64
- Channel Wire Power:      1.18672
- Channel Clock Power:     0.371137
- Channel Retiming Power:  0.0147443
- Channel Leakage Power:   0.139912
- Input Read Power:        0.0246084
- Input Write Power:       0.0246084
- Input Leakage Power:     0.0283116
- Switch Power:            0.0552108
- Switch Control Power:    0.0276286
- Switch Leakage Power:    0.192763
- Output DFF Power:        0.00573544
- Output Clk Power:        0.181781
- Output Control Power:    0.00295996
- Total Power:             2.25612
-----------------------------------------

-----------------------------------------
- OCN Area Summary
- Channel Area:  0.0278095
- Switch  Area:  0.060398
- Input  Area:   0.030199
- Output  Area:  0.00503316
- Total Area:    0.12344
-----------------------------------------
CSV Power Result Header , Completion Time, Channel Wire, Channel Clock, Channel Retiming, Channel Leakage, Input Read, Input Write, Input Leakage, Switch Power, Switch Control, Switch Leakage, Output DFF, Output Clk, Output Control
CSV Power Result , 100043, 1.18672, 0.371137, 0.0147443, 0.139912, 0.0246084, 0.0246084, 0.0283116, 0.0552108, 0.0276286, 0.192763, 0.00573544, 0.181781, 0.00295996
delete:0x7ffeb465f570
delete:0x7ffeb465f570
