generate:0x7ffd69abbab0
generate:0x7ffd69abbc20
BEGIN Configuration File: test
//topology
topology = mesh;
k = 4;
n = 2;
type = interposer;
// Routing
routing_function = dor;

// Flow control
num_vcs     = 2;
vc_buf_size = 8;
wait_for_tail_credit = 1;
hold_switch_for_packet = 1;

// Router architecture
vc_allocator = islip;
sw_allocator = islip;
alloc_iters  = 1;

credit_delay   = 0;
routing_delay  = 1;
vc_alloc_delay = 1;
sw_alloc_delay = 1;
st_final_delay = 1;

input_speedup     = 1;
output_speedup    = 1;
internal_speedup  = 1.0;
vc_busy_when_full = 0;


//granulaity
latency_thres=20000.0;
deadlock_warn_timeout=20000;
traceStretch=3;

//gating
doGating=0;
sleepThreshold=40;
breakEvenThreshold=80;



//Syn Traffic
sim_type=latency;
traffic=uniform;
packet_size = 1;
sample_period=10000;
warmup_periods=1;
max_samples=10;
injection_rate=0.13;

//creditDelays=creditDelays({1,1,1,1,1,1,1,1,1,1,1,1,1,1,1,1,1,1,1,1,1,1,1,1,1,1,1,1,1,1,1,1,1,1,1,1,1,1,1,1,1,1,1,1,1,1,1,1,1,1,1,1,1,1,1,1,1,1,1,1,1,1,1,1});
//routingDelays=routingDelays({2,2,2,2,2,2,2,2,2,2,2,2,2,2,2,2,2,2,2,2,2,2,2,2,2,2,2,2,2,2,2,2,2,2,2,2,2,2,2,2,2,2,2,2,2,2,2,2,2,2,2,2,2,2,2,2,2,2,2,2,2,2,2,2});
//vcAllocDelays=vcAllocDelays({2,2,2,2,2,2,2,2,2,2,2,2,2,2,2,2,2,2,2,2,2,2,2,2,2,2,2,2,2,2,2,2,2,2,2,2,2,2,2,2,2,2,2,2,2,2,2,2,2,2,2,2,2,2,2,2,2,2,2,2,2,2,2,2});

creditDelays=creditDelays({0,0,0,0,0,0,0,0,0,0,0,0,0,0,0,0,0,0,0,0,0,0,0,0,0,0,0,0,0,0,0,0,0,0,0,0,0,0,0,0,0,0,0,0,0,0,0,0,0,0,0,0,0,0,0,0,0,0,0,0,0,0,0,0}});
routingDelays=routingDelays({1,1,1,1,1,1,1,1,1,1,1,1,1,1,1,1,1,1,1,1,1,1,1,1,1,1,1,1,1,1,1,1,1,1,1,1,1,1,1,1,1,1,1,1,1,1,1,1,1,1,1,1,1,1,1,1,1,1,1,1,1,1,1,1});
vcAllocDelays=vcAllocDelays({1,1,1,1,1,1,1,1,1,1,1,1,1,1,1,1,1,1,1,1,1,1,1,1,1,1,1,1,1,1,1,1,1,1,1,1,1,1,1,1,1,1,1,1,1,1,1,1,1,1,1,1,1,1,1,1,1,1,1,1,1,1,1,1});
swAllocDelays=swAllocDelays({1,1,1,1,1,1,1,1,1,1,1,1,1,1,1,1,1,1,1,1,1,1,1,1,1,1,1,1,1,1,1,1,1,1,1,1,1,1,1,1,1,1,1,1,1,1,1,1,1,1,1,1,1,1,1,1,1,1,1,1,1,1,1,1});
stFinalDelays=stFinalDelays({1,1,1,1,1,1,1,1,1,1,1,1,1,1,1,1,1,1,1,1,1,1,1,1,1,1,1,1,1,1,1,1,1,1,1,1,1,1,1,1,1,1,1,1,1,1,1,1,1,1,1,1,1,1,1,1,1,1,1,1,1,1,1,1});


isAsync=isAsync({0,0,0,0,0,0,0,0,0,0,0,0,0,0,0,0,0,0,0,0,0,0,0,0,0,0,0,0,0,0,0,0,0,0,0,0,0,0,0,0,0,0,0,0,0,0,0,0,0,0,0,0,0,0,0,0,0,0,0,0,0,0,0,0});
isMetaUnstable=isMetaUnstable({0,0,0,0,0,0,0,0,0,0,0,0,0,0,0,0,0,0,0,0,0,0,0,0,0,0,0,0,0,0,0,0,0,0,0,0,0,0,0,0,0,0,0,0,0,0,0,0,0,0,0,0,0,0,0,0,0,0,0,0,0,0,0,0});

creditDelayStdDevs=creditDelayStdDevs({0,0,0,0,0,0,0,0,0,0,0,0,0,0,0,0,0,0,0,0,0,0,0,0,0,0,0,0,0,0,0,0,0,0,0,0,0,0,0,0,0,0,0,0,0,0,0,0,0,0,0,0,0,0,0,0,0,0,0,0,0,0,0,0});
routingDelayStdDevs=routingDelayStdDevs({0,0,0,0,0,0,0,0,0,0,0,0,0,0,0,0,0,0,0,0,0,0,0,0,0,0,0,0,0,0,0,0,0,0,0,0,0,0,0,0,0,0,0,0,0,0,0,0,0,0,0,0,0,0,0,0,0,0,0,0,0,0,0,0});
vcAllocDelayStdDevs=vcAllocDelayStdDevs({0,0,0,0,0,0,0,0,0,0,0,0,0,0,0,0,0,0,0,0,0,0,0,0,0,0,0,0,0,0,0,0,0,0,0,0,0,0,0,0,0,0,0,0,0,0,0,0,0,0,0,0,0,0,0,0,0,0,0,0,0,0,0,0});
swAllocDelayStdDevs=swAllocDelayStdDevs({0,0,0,0,0,0,0,0,0,0,0,0,0,0,0,0,0,0,0,0,0,0,0,0,0,0,0,0,0,0,0,0,0,0,0,0,0,0,0,0,0,0,0,0,0,0,0,0,0,0,0,0,0,0,0,0,0,0,0,0,0,0,0,0});
stFinalDelayStdDevs=stFinalDelayStdDevs({0,0,0,0,0,0,0,0,0,0,0,0,0,0,0,0,0,0,0,0,0,0,0,0,0,0,0,0,0,0,0,0,0,0,0,0,0,0,0,0,0,0,0,0,0,0,0,0,0,0,0,0,0,0,0,0,0,0,0,0,0,0,0,0});

  
swAllocThresholds=swAllocThresholds({1,1,1,1,1,1,1,1,1,1,1,1,1,1,1,1,1,1,1,1,1,1,1,1,1,1,1,1,1,1,1,1,1,1,1,1,1,1,1,1,1,1,1,1,1,1,1,1,1,1,1,1,1,1,1,1,1,1,1,1,1,1,1,1});
swAllocThresholdStdDevs=swAllocThresholdStdDevs({0,0,0,0,0,0,0,0,0,0,0,0,0,0,0,0,0,0,0,0,0,0,0,0,0,0,0,0,0,0,0,0,0,0,0,0,0,0,0,0,0,0,0,0,0,0,0,0,0,0,0,0,0,0,0,0,0,0,0,0,0,0,0,0});
swAllocMetaStableThresholds=swAllocMetaStableThresholds({1,1,1,1,1,1,1,1,1,1,1,1,1,1,1,1,1,1,1,1,1,1,1,1,1,1,1,1,1,1,1,1,1,1,1,1,1,1,1,1,1,1,1,1,1,1,1,1,1,1,1,1,1,1,1,1,1,1,1,1,1,1,1,1});
swAllocMetaStableMaxPenalities=swAllocMetaStableMaxPenalities({0,0,0,0,0,0,0,0,0,0,0,0,0,0,0,0,0,0,0,0,0,0,0,0,0,0,0,0,0,0,0,0,0,0,0,0,0,0,0,0,0,0,0,0,0,0,0,0,0,0,0,0,0,0,0,0,0,0,0,0,0,0,0,0});

END Configuration File: test
rid:0 add uselessoutput chan64
rid:1 add uselessoutput chan64
rid:2 add uselessoutput chan64
rid:3 add uselessoutput chan64
rid:4 add uselessoutput chan64
rid:5 add uselessoutput chan64
rid:6 add uselessoutput chan64
rid:7 add uselessoutput chan64
rid:8 add uselessoutput chan64
rid:9 add uselessoutput chan64
rid:10 add uselessoutput chan64
rid:11 add uselessoutput chan64
rid:12 add uselessoutput chan64
rid:13 add uselessoutput chan64
rid:14 add uselessoutput chan64
rid:15 add uselessoutput chan64

Tick: 0M
===== Time: 10000 =====
Class 0:
Minimum packet latency = 6
Average packet latency = 22.2305
Maximum packet latency = 105
Minimum network latency = 7
Average network latency = 22.2738
Maximum network latency = 106
Slowest packet = 9526
Minimum flit latency = 7
Average flit latency = 22.2738
Maximum flit latency = 106
Slowest flit = 9526
Minimum fragmentation = 0
Average fragmentation = 0
Maximum fragmentation = 0
Minimum injected packet rate = 0.1224 (at node 14)
Average injected packet rate = 0.128913
Maximum injected packet rate = 0.1353 (at node 15)
Minimum accepted packet rate = 0.1188 (at node 4)
Average accepted packet rate = 0.128688
Maximum accepted packet rate = 0.1361 (at node 8)
Minimum injected flit rate = 0.1224 (at node 14)
Average injected flit rate = 0.128913
Maximum injected flit rate = 0.1353 (at node 15)
Minimum accepted flit rate = 0.1188 (at node 4)
Average accepted flit rate = 0.128688
Maximum accepted flit rate = 0.1361 (at node 8)
Total number of injected packets = 20626
Total number of injected flits = 20626
Average injected packet length = 1
Total number of accepted packets = 20590
Total number of accepted flits = 20590
Average accepted packet length = 1
Total in-flight flits = 38 (0 measured)
class 0 latency change    = 1
class 0 throughput change = 1
Warmed up ...Time used is 10000 cycles
===== Time: 20000 =====
Class 0:
Minimum packet latency = 6
Average packet latency = 22.3274
Maximum packet latency = 103
Minimum network latency = 7
Average network latency = 22.3198
Maximum network latency = 79
Slowest packet = 23178
Minimum flit latency = 7
Average flit latency = 22.3176
Maximum flit latency = 79
Slowest flit = 37235
Minimum fragmentation = 0
Average fragmentation = 0
Maximum fragmentation = 0
Minimum injected packet rate = 0.1265 (at node 2)
Average injected packet rate = 0.130075
Maximum injected packet rate = 0.1357 (at node 4)
Minimum accepted packet rate = 0.1236 (at node 4)
Average accepted packet rate = 0.130025
Maximum accepted packet rate = 0.1369 (at node 7)
Minimum injected flit rate = 0.1265 (at node 2)
Average injected flit rate = 0.130075
Maximum injected flit rate = 0.1357 (at node 4)
Minimum accepted flit rate = 0.1236 (at node 4)
Average accepted flit rate = 0.130025
Maximum accepted flit rate = 0.1369 (at node 7)
Total number of injected packets = 20812
Total number of injected flits = 20812
Average injected packet length = 1
Total number of accepted packets = 20804
Total number of accepted flits = 20804
Average accepted packet length = 1
Total in-flight flits = 47 (47 measured)
class 0 latency change    = 0.00434043
class 0 throughput change = 0.0102865
===== Time: 30000 =====
Class 0:
Minimum packet latency = 6
Average packet latency = 22.4432
Maximum packet latency = 106
Minimum network latency = 7
Average network latency = 22.3856
Maximum network latency = 104
Slowest packet = 44279
Minimum flit latency = 7
Average flit latency = 22.3844
Maximum flit latency = 104
Slowest flit = 44279
Minimum fragmentation = 0
Average fragmentation = 0
Maximum fragmentation = 0
Minimum injected packet rate = 0.125 (at node 9)
Average injected packet rate = 0.129547
Maximum injected packet rate = 0.1371 (at node 4)
Minimum accepted packet rate = 0.1259 (at node 0)
Average accepted packet rate = 0.129516
Maximum accepted packet rate = 0.1358 (at node 7)
Minimum injected flit rate = 0.125 (at node 9)
Average injected flit rate = 0.129547
Maximum injected flit rate = 0.1371 (at node 4)
Minimum accepted flit rate = 0.1259 (at node 0)
Average accepted flit rate = 0.129516
Maximum accepted flit rate = 0.1358 (at node 7)
Total number of injected packets = 41455
Total number of injected flits = 41455
Average injected packet length = 1
Total number of accepted packets = 41445
Total number of accepted flits = 41445
Average accepted packet length = 1
Total in-flight flits = 46 (46 measured)
class 0 latency change    = 0.00516183
class 0 throughput change = 0.00393292
===== Time: 40000 =====
Class 0:
Minimum packet latency = 6
Average packet latency = 22.5349
Maximum packet latency = 112
Minimum network latency = 7
Average network latency = 22.4285
Maximum network latency = 104
Slowest packet = 44279
Minimum flit latency = 7
Average flit latency = 22.4277
Maximum flit latency = 104
Slowest flit = 44279
Minimum fragmentation = 0
Average fragmentation = 0
Maximum fragmentation = 0
Minimum injected packet rate = 0.126 (at node 7)
Average injected packet rate = 0.129862
Maximum injected packet rate = 0.135233 (at node 4)
Minimum accepted packet rate = 0.1264 (at node 0)
Average accepted packet rate = 0.129844
Maximum accepted packet rate = 0.133567 (at node 7)
Minimum injected flit rate = 0.126 (at node 7)
Average injected flit rate = 0.129862
Maximum injected flit rate = 0.135233 (at node 4)
Minimum accepted flit rate = 0.1264 (at node 0)
Average accepted flit rate = 0.129844
Maximum accepted flit rate = 0.133567 (at node 7)
Total number of injected packets = 62334
Total number of injected flits = 62334
Average injected packet length = 1
Total number of accepted packets = 62325
Total number of accepted flits = 62325
Average accepted packet length = 1
Total in-flight flits = 45 (45 measured)
class 0 latency change    = 0.00406786
class 0 throughput change = 0.00252708
===== Time: 50000 =====
Class 0:
Minimum packet latency = 6
Average packet latency = 22.5039
Maximum packet latency = 112
Minimum network latency = 7
Average network latency = 22.4155
Maximum network latency = 104
Slowest packet = 44279
Minimum flit latency = 7
Average flit latency = 22.4149
Maximum flit latency = 104
Slowest flit = 44279
Minimum fragmentation = 0
Average fragmentation = 0
Maximum fragmentation = 0
Minimum injected packet rate = 0.1269 (at node 7)
Average injected packet rate = 0.129878
Maximum injected packet rate = 0.134 (at node 4)
Minimum accepted packet rate = 0.127525 (at node 12)
Average accepted packet rate = 0.12987
Maximum accepted packet rate = 0.132875 (at node 7)
Minimum injected flit rate = 0.1269 (at node 7)
Average injected flit rate = 0.129878
Maximum injected flit rate = 0.134 (at node 4)
Minimum accepted flit rate = 0.127525 (at node 12)
Average accepted flit rate = 0.12987
Maximum accepted flit rate = 0.132875 (at node 7)
Total number of injected packets = 83122
Total number of injected flits = 83122
Average injected packet length = 1
Total number of accepted packets = 83117
Total number of accepted flits = 83117
Average accepted packet length = 1
Total in-flight flits = 42 (42 measured)
class 0 latency change    = 0.00137848
class 0 throughput change = 0.000204531
===== Time: 60000 =====
Class 0:
Minimum packet latency = 6
Average packet latency = 22.4601
Maximum packet latency = 112
Minimum network latency = 7
Average network latency = 22.3833
Maximum network latency = 104
Slowest packet = 44279
Minimum flit latency = 7
Average flit latency = 22.3828
Maximum flit latency = 104
Slowest flit = 44279
Minimum fragmentation = 0
Average fragmentation = 0
Maximum fragmentation = 0
Minimum injected packet rate = 0.12648 (at node 1)
Average injected packet rate = 0.130024
Maximum injected packet rate = 0.13322 (at node 4)
Minimum accepted packet rate = 0.12796 (at node 0)
Average accepted packet rate = 0.13001
Maximum accepted packet rate = 0.13326 (at node 7)
Minimum injected flit rate = 0.12648 (at node 1)
Average injected flit rate = 0.130024
Maximum injected flit rate = 0.13322 (at node 4)
Minimum accepted flit rate = 0.12796 (at node 0)
Average accepted flit rate = 0.13001
Maximum accepted flit rate = 0.13326 (at node 7)
Total number of injected packets = 104019
Total number of injected flits = 104019
Average injected packet length = 1
Total number of accepted packets = 104008
Total number of accepted flits = 104008
Average accepted packet length = 1
Total in-flight flits = 47 (47 measured)
class 0 latency change    = 0.00194893
class 0 throughput change = 0.00107444
===== Time: 70000 =====
Class 0:
Minimum packet latency = 6
Average packet latency = 22.5035
Maximum packet latency = 112
Minimum network latency = 7
Average network latency = 22.4124
Maximum network latency = 106
Slowest packet = 44279
Minimum flit latency = 7
Average flit latency = 22.412
Maximum flit latency = 106
Slowest flit = 129048
Minimum fragmentation = 0
Average fragmentation = 0
Maximum fragmentation = 0
Minimum injected packet rate = 0.126033 (at node 1)
Average injected packet rate = 0.130106
Maximum injected packet rate = 0.132267 (at node 4)
Minimum accepted packet rate = 0.127817 (at node 0)
Average accepted packet rate = 0.130089
Maximum accepted packet rate = 0.132483 (at node 7)
Minimum injected flit rate = 0.126033 (at node 1)
Average injected flit rate = 0.130106
Maximum injected flit rate = 0.132267 (at node 4)
Minimum accepted flit rate = 0.127817 (at node 0)
Average accepted flit rate = 0.130089
Maximum accepted flit rate = 0.132483 (at node 7)
Total number of injected packets = 124902
Total number of injected flits = 124902
Average injected packet length = 1
Total number of accepted packets = 124885
Total number of accepted flits = 124885
Average accepted packet length = 1
Total in-flight flits = 53 (53 measured)
class 0 latency change    = 0.00192946
class 0 throughput change = 0.000603755
===== Time: 80000 =====
Class 0:
Minimum packet latency = 6
Average packet latency = 22.5326
Maximum packet latency = 115
Minimum network latency = 7
Average network latency = 22.4254
Maximum network latency = 106
Slowest packet = 44279
Minimum flit latency = 7
Average flit latency = 22.425
Maximum flit latency = 106
Slowest flit = 129048
Minimum fragmentation = 0
Average fragmentation = 0
Maximum fragmentation = 0
Minimum injected packet rate = 0.1265 (at node 1)
Average injected packet rate = 0.130122
Maximum injected packet rate = 0.132857 (at node 4)
Minimum accepted packet rate = 0.128343 (at node 0)
Average accepted packet rate = 0.130113
Maximum accepted packet rate = 0.132814 (at node 7)
Minimum injected flit rate = 0.1265 (at node 1)
Average injected flit rate = 0.130122
Maximum injected flit rate = 0.132857 (at node 4)
Minimum accepted flit rate = 0.128343 (at node 0)
Average accepted flit rate = 0.130113
Maximum accepted flit rate = 0.132814 (at node 7)
Total number of injected packets = 145737
Total number of injected flits = 145737
Average injected packet length = 1
Total number of accepted packets = 145727
Total number of accepted flits = 145727
Average accepted packet length = 1
Total in-flight flits = 49 (49 measured)
class 0 latency change    = 0.00129128
class 0 throughput change = 0.000190996
===== Time: 90000 =====
Class 0:
Minimum packet latency = 6
Average packet latency = 22.5491
Maximum packet latency = 115
Minimum network latency = 7
Average network latency = 22.4275
Maximum network latency = 106
Slowest packet = 44279
Minimum flit latency = 7
Average flit latency = 22.4272
Maximum flit latency = 106
Slowest flit = 129048
Minimum fragmentation = 0
Average fragmentation = 0
Maximum fragmentation = 0
Minimum injected packet rate = 0.126938 (at node 1)
Average injected packet rate = 0.130342
Maximum injected packet rate = 0.13235 (at node 10)
Minimum accepted packet rate = 0.1281 (at node 8)
Average accepted packet rate = 0.130334
Maximum accepted packet rate = 0.132738 (at node 9)
Minimum injected flit rate = 0.126938 (at node 1)
Average injected flit rate = 0.130342
Maximum injected flit rate = 0.13235 (at node 10)
Minimum accepted flit rate = 0.1281 (at node 8)
Average accepted flit rate = 0.130334
Maximum accepted flit rate = 0.132738 (at node 9)
Total number of injected packets = 166838
Total number of injected flits = 166838
Average injected packet length = 1
Total number of accepted packets = 166827
Total number of accepted flits = 166827
Average accepted packet length = 1
Total in-flight flits = 47 (47 measured)
class 0 latency change    = 0.000733627
class 0 throughput change = 0.00168952
===== Time: 100000 =====
Class 0:
Minimum packet latency = 6
Average packet latency = 22.5491
Maximum packet latency = 115
Minimum network latency = 7
Average network latency = 22.424
Maximum network latency = 106
Slowest packet = 44279
Minimum flit latency = 7
Average flit latency = 22.4238
Maximum flit latency = 106
Slowest flit = 129048
Minimum fragmentation = 0
Average fragmentation = 0
Maximum fragmentation = 0
Minimum injected packet rate = 0.126867 (at node 1)
Average injected packet rate = 0.130323
Maximum injected packet rate = 0.132222 (at node 10)
Minimum accepted packet rate = 0.128244 (at node 0)
Average accepted packet rate = 0.130317
Maximum accepted packet rate = 0.132567 (at node 9)
Minimum injected flit rate = 0.126867 (at node 1)
Average injected flit rate = 0.130323
Maximum injected flit rate = 0.132222 (at node 10)
Minimum accepted flit rate = 0.128244 (at node 0)
Average accepted flit rate = 0.130317
Maximum accepted flit rate = 0.132567 (at node 9)
Total number of injected packets = 187665
Total number of injected flits = 187665
Average injected packet length = 1
Total number of accepted packets = 187657
Total number of accepted flits = 187657
Average accepted packet length = 1
Total in-flight flits = 44 (44 measured)
class 0 latency change    = 3.46218e-06
class 0 throughput change = 0.000124562
Draining all recorded packets ...
Draining remaining packets ...
Time taken is 100062 cycles
====== Traffic class 0 ======

Total number of flits generated = 208356, changed lanes = 0
Overall minimum packet latency = 6 (1 samples)
Overall average packet latency = 22.5496 (1 samples)
Overall maximum packet latency = 115 (1 samples)
Overall minimum network latency = 7 (1 samples)
Overall average network latency = 22.4247 (1 samples)
Overall maximum network latency = 106 (1 samples)
Overall minimum flit latency = 7 (1 samples)
Overall average flit latency = 22.4238 (1 samples)
Overall maximum flit latency = 106 (1 samples)
Overall minimum fragmentation = 0 (1 samples)
Overall average fragmentation = 0 (1 samples)
Overall maximum fragmentation = 0 (1 samples)
Overall minimum injected packet rate = 0.126867 (1 samples)
Overall average injected packet rate = 0.130323 (1 samples)
Overall maximum injected packet rate = 0.132222 (1 samples)
Overall minimum accepted packet rate = 0.128244 (1 samples)
Overall average accepted packet rate = 0.130317 (1 samples)
Overall maximum accepted packet rate = 0.132567 (1 samples)
Overall minimum injected flit rate = 0.126867 (1 samples)
Overall average injected flit rate = 0.130323 (1 samples)
Overall maximum injected flit rate = 0.132222 (1 samples)
Overall minimum accepted flit rate = 0.128244 (1 samples)
Overall average accepted flit rate = 0.130317 (1 samples)
Overall maximum accepted flit rate = 0.132567 (1 samples)
Overall average injected packet size = 1 (1 samples)
Overall average accepted packet size = 1 (1 samples)
Overall average hops = 3.50662 (1 samples)
Overall throughput of the network (flits/cycle) = 2.31507
Overall throughput of the network (packets/cycle) = 2.31507
CSV Result Header , avgFLat,avgFInjRate
CSV Result ,22.4238,0.130323

Power Report Header, Frequency, Time, StaticIQ, DynamicIQ, StaticVC, DynamicVC, StaticSA, DynamicSA, StaticST, DynamicST, StaticLink, DynamicLink, NoFlits, ePerFlit
Power Report,3.9e+08,100062,0.0329687,0.0368482,0.0018744,0.00108365,0.000562321,0.00101991,0.119399,0.012789,0.0226366,0.0297131,208356,3.20137e-10

*****************************************
Total run time 10.3219
generate:0x7ffd69abb520
delete:0x7ffd69abb520
L = 2 K = 8.1 M = 2 N = 1
-----------------------------------------
- OCN Power Summary
- Completion Time:         100062
- Flit Widths:            64
- Channel Wire Power:      5.14434
- Channel Clock Power:     0.371137
- Channel Retiming Power:  0.0639156
- Channel Leakage Power:   0.139912
- Input Read Power:        0.106691
- Input Write Power:       0.106691
- Input Leakage Power:     0.0283116
- Switch Power:            0.23919
- Switch Control Power:    0.119785
- Switch Leakage Power:    0.192763
- Output DFF Power:        0.0248664
- Output Clk Power:        0.181781
- Output Control Power:    0.0128331
- Total Power:             6.73222
-----------------------------------------

-----------------------------------------
- OCN Area Summary
- Channel Area:  0.0278095
- Switch  Area:  0.060398
- Input  Area:   0.030199
- Output  Area:  0.00503316
- Total Area:    0.12344
-----------------------------------------
CSV Power Result Header , Completion Time, Channel Wire, Channel Clock, Channel Retiming, Channel Leakage, Input Read, Input Write, Input Leakage, Switch Power, Switch Control, Switch Leakage, Output DFF, Output Clk, Output Control
CSV Power Result , 100062, 5.14434, 0.371137, 0.0639156, 0.139912, 0.106691, 0.106691, 0.0283116, 0.23919, 0.119785, 0.192763, 0.0248664, 0.181781, 0.0128331
delete:0x7ffd69abb520
delete:0x7ffd69abb520
