generate:0x7ffd67fe1d20
generate:0x7ffd67fe1e90
BEGIN Configuration File: test
//topology
topology = mesh;
k = 4;
n = 2;
type = interposer;
// Routing
routing_function = dor;

// Flow control
num_vcs     = 2;
vc_buf_size = 8;
wait_for_tail_credit = 1;
hold_switch_for_packet = 1;

// Router architecture
vc_allocator = islip;
sw_allocator = islip;
alloc_iters  = 1;

credit_delay   = 0;
routing_delay  = 1;
vc_alloc_delay = 1;
sw_alloc_delay = 1;
st_final_delay = 1;

input_speedup     = 1;
output_speedup    = 1;
internal_speedup  = 1.0;
vc_busy_when_full = 0;


//granulaity
latency_thres=20000.0;
deadlock_warn_timeout=20000;
traceStretch=3;

//gating
doGating=0;
sleepThreshold=40;
breakEvenThreshold=80;



//Syn Traffic
sim_type=latency;
traffic=uniform;
packet_size = 1;
sample_period=10000;
warmup_periods=1;
max_samples=10;
injection_rate=0.05;

//creditDelays=creditDelays({1,1,1,1,1,1,1,1,1,1,1,1,1,1,1,1,1,1,1,1,1,1,1,1,1,1,1,1,1,1,1,1,1,1,1,1,1,1,1,1,1,1,1,1,1,1,1,1,1,1,1,1,1,1,1,1,1,1,1,1,1,1,1,1});
//routingDelays=routingDelays({2,2,2,2,2,2,2,2,2,2,2,2,2,2,2,2,2,2,2,2,2,2,2,2,2,2,2,2,2,2,2,2,2,2,2,2,2,2,2,2,2,2,2,2,2,2,2,2,2,2,2,2,2,2,2,2,2,2,2,2,2,2,2,2});
//vcAllocDelays=vcAllocDelays({2,2,2,2,2,2,2,2,2,2,2,2,2,2,2,2,2,2,2,2,2,2,2,2,2,2,2,2,2,2,2,2,2,2,2,2,2,2,2,2,2,2,2,2,2,2,2,2,2,2,2,2,2,2,2,2,2,2,2,2,2,2,2,2});

creditDelays=creditDelays({0,0,0,0,0,0,0,0,0,0,0,0,0,0,0,0,0,0,0,0,0,0,0,0,0,0,0,0,0,0,0,0,0,0,0,0,0,0,0,0,0,0,0,0,0,0,0,0,0,0,0,0,0,0,0,0,0,0,0,0,0,0,0,0}});
routingDelays=routingDelays({1,1,1,1,1,1,1,1,1,1,1,1,1,1,1,1,1,1,1,1,1,1,1,1,1,1,1,1,1,1,1,1,1,1,1,1,1,1,1,1,1,1,1,1,1,1,1,1,1,1,1,1,1,1,1,1,1,1,1,1,1,1,1,1});
vcAllocDelays=vcAllocDelays({1,1,1,1,1,1,1,1,1,1,1,1,1,1,1,1,1,1,1,1,1,1,1,1,1,1,1,1,1,1,1,1,1,1,1,1,1,1,1,1,1,1,1,1,1,1,1,1,1,1,1,1,1,1,1,1,1,1,1,1,1,1,1,1});
swAllocDelays=swAllocDelays({1,1,1,1,1,1,1,1,1,1,1,1,1,1,1,1,1,1,1,1,1,1,1,1,1,1,1,1,1,1,1,1,1,1,1,1,1,1,1,1,1,1,1,1,1,1,1,1,1,1,1,1,1,1,1,1,1,1,1,1,1,1,1,1});
stFinalDelays=stFinalDelays({1,1,1,1,1,1,1,1,1,1,1,1,1,1,1,1,1,1,1,1,1,1,1,1,1,1,1,1,1,1,1,1,1,1,1,1,1,1,1,1,1,1,1,1,1,1,1,1,1,1,1,1,1,1,1,1,1,1,1,1,1,1,1,1});


isAsync=isAsync({0,0,0,0,0,0,0,0,0,0,0,0,0,0,0,0,0,0,0,0,0,0,0,0,0,0,0,0,0,0,0,0,0,0,0,0,0,0,0,0,0,0,0,0,0,0,0,0,0,0,0,0,0,0,0,0,0,0,0,0,0,0,0,0});
isMetaUnstable=isMetaUnstable({0,0,0,0,0,0,0,0,0,0,0,0,0,0,0,0,0,0,0,0,0,0,0,0,0,0,0,0,0,0,0,0,0,0,0,0,0,0,0,0,0,0,0,0,0,0,0,0,0,0,0,0,0,0,0,0,0,0,0,0,0,0,0,0});

creditDelayStdDevs=creditDelayStdDevs({0,0,0,0,0,0,0,0,0,0,0,0,0,0,0,0,0,0,0,0,0,0,0,0,0,0,0,0,0,0,0,0,0,0,0,0,0,0,0,0,0,0,0,0,0,0,0,0,0,0,0,0,0,0,0,0,0,0,0,0,0,0,0,0});
routingDelayStdDevs=routingDelayStdDevs({0,0,0,0,0,0,0,0,0,0,0,0,0,0,0,0,0,0,0,0,0,0,0,0,0,0,0,0,0,0,0,0,0,0,0,0,0,0,0,0,0,0,0,0,0,0,0,0,0,0,0,0,0,0,0,0,0,0,0,0,0,0,0,0});
vcAllocDelayStdDevs=vcAllocDelayStdDevs({0,0,0,0,0,0,0,0,0,0,0,0,0,0,0,0,0,0,0,0,0,0,0,0,0,0,0,0,0,0,0,0,0,0,0,0,0,0,0,0,0,0,0,0,0,0,0,0,0,0,0,0,0,0,0,0,0,0,0,0,0,0,0,0});
swAllocDelayStdDevs=swAllocDelayStdDevs({0,0,0,0,0,0,0,0,0,0,0,0,0,0,0,0,0,0,0,0,0,0,0,0,0,0,0,0,0,0,0,0,0,0,0,0,0,0,0,0,0,0,0,0,0,0,0,0,0,0,0,0,0,0,0,0,0,0,0,0,0,0,0,0});
stFinalDelayStdDevs=stFinalDelayStdDevs({0,0,0,0,0,0,0,0,0,0,0,0,0,0,0,0,0,0,0,0,0,0,0,0,0,0,0,0,0,0,0,0,0,0,0,0,0,0,0,0,0,0,0,0,0,0,0,0,0,0,0,0,0,0,0,0,0,0,0,0,0,0,0,0});

  
swAllocThresholds=swAllocThresholds({1,1,1,1,1,1,1,1,1,1,1,1,1,1,1,1,1,1,1,1,1,1,1,1,1,1,1,1,1,1,1,1,1,1,1,1,1,1,1,1,1,1,1,1,1,1,1,1,1,1,1,1,1,1,1,1,1,1,1,1,1,1,1,1});
swAllocThresholdStdDevs=swAllocThresholdStdDevs({0,0,0,0,0,0,0,0,0,0,0,0,0,0,0,0,0,0,0,0,0,0,0,0,0,0,0,0,0,0,0,0,0,0,0,0,0,0,0,0,0,0,0,0,0,0,0,0,0,0,0,0,0,0,0,0,0,0,0,0,0,0,0,0});
swAllocMetaStableThresholds=swAllocMetaStableThresholds({1,1,1,1,1,1,1,1,1,1,1,1,1,1,1,1,1,1,1,1,1,1,1,1,1,1,1,1,1,1,1,1,1,1,1,1,1,1,1,1,1,1,1,1,1,1,1,1,1,1,1,1,1,1,1,1,1,1,1,1,1,1,1,1});
swAllocMetaStableMaxPenalities=swAllocMetaStableMaxPenalities({0,0,0,0,0,0,0,0,0,0,0,0,0,0,0,0,0,0,0,0,0,0,0,0,0,0,0,0,0,0,0,0,0,0,0,0,0,0,0,0,0,0,0,0,0,0,0,0,0,0,0,0,0,0,0,0,0,0,0,0,0,0,0,0});

END Configuration File: test
rid:0 add uselessoutput chan64
rid:1 add uselessoutput chan64
rid:2 add uselessoutput chan64
rid:3 add uselessoutput chan64
rid:4 add uselessoutput chan64
rid:5 add uselessoutput chan64
rid:6 add uselessoutput chan64
rid:7 add uselessoutput chan64
rid:8 add uselessoutput chan64
rid:9 add uselessoutput chan64
rid:10 add uselessoutput chan64
rid:11 add uselessoutput chan64
rid:12 add uselessoutput chan64
rid:13 add uselessoutput chan64
rid:14 add uselessoutput chan64
rid:15 add uselessoutput chan64

Tick: 0M
===== Time: 10000 =====
Class 0:
Minimum packet latency = 6
Average packet latency = 18.7943
Maximum packet latency = 47
Minimum network latency = 7
Average network latency = 19.7511
Maximum network latency = 48
Slowest packet = 1515
Minimum flit latency = 7
Average flit latency = 19.7511
Maximum flit latency = 48
Slowest flit = 1515
Minimum fragmentation = 0
Average fragmentation = 0
Maximum fragmentation = 0
Minimum injected packet rate = 0.0458 (at node 8)
Average injected packet rate = 0.0494687
Maximum injected packet rate = 0.0519 (at node 9)
Minimum accepted packet rate = 0.0453 (at node 4)
Average accepted packet rate = 0.0493688
Maximum accepted packet rate = 0.0533 (at node 8)
Minimum injected flit rate = 0.0458 (at node 8)
Average injected flit rate = 0.0494687
Maximum injected flit rate = 0.0519 (at node 9)
Minimum accepted flit rate = 0.0453 (at node 4)
Average accepted flit rate = 0.0493688
Maximum accepted flit rate = 0.0533 (at node 8)
Total number of injected packets = 7915
Total number of injected flits = 7915
Average injected packet length = 1
Total number of accepted packets = 7899
Total number of accepted flits = 7899
Average accepted packet length = 1
Total in-flight flits = 16 (0 measured)
class 0 latency change    = 1
class 0 throughput change = 1
Warmed up ...Time used is 10000 cycles
===== Time: 20000 =====
Class 0:
Minimum packet latency = 6
Average packet latency = 19.0636
Maximum packet latency = 45
Minimum network latency = 7
Average network latency = 20.0163
Maximum network latency = 46
Slowest packet = 9475
Minimum flit latency = 7
Average flit latency = 20.0247
Maximum flit latency = 46
Slowest flit = 8655
Minimum fragmentation = 0
Average fragmentation = 0
Maximum fragmentation = 0
Minimum injected packet rate = 0.048 (at node 5)
Average injected packet rate = 0.0506062
Maximum injected packet rate = 0.0547 (at node 11)
Minimum accepted packet rate = 0.046 (at node 4)
Average accepted packet rate = 0.0505813
Maximum accepted packet rate = 0.0541 (at node 9)
Minimum injected flit rate = 0.048 (at node 5)
Average injected flit rate = 0.0506062
Maximum injected flit rate = 0.0547 (at node 11)
Minimum accepted flit rate = 0.046 (at node 4)
Average accepted flit rate = 0.0505813
Maximum accepted flit rate = 0.0541 (at node 9)
Total number of injected packets = 8097
Total number of injected flits = 8097
Average injected packet length = 1
Total number of accepted packets = 8093
Total number of accepted flits = 8093
Average accepted packet length = 1
Total in-flight flits = 20 (20 measured)
class 0 latency change    = 0.0141295
class 0 throughput change = 0.0239713
===== Time: 30000 =====
Class 0:
Minimum packet latency = 6
Average packet latency = 19.0096
Maximum packet latency = 45
Minimum network latency = 7
Average network latency = 19.9578
Maximum network latency = 46
Slowest packet = 16316
Minimum flit latency = 7
Average flit latency = 19.9621
Maximum flit latency = 46
Slowest flit = 8655
Minimum fragmentation = 0
Average fragmentation = 0
Maximum fragmentation = 0
Minimum injected packet rate = 0.04735 (at node 6)
Average injected packet rate = 0.0500969
Maximum injected packet rate = 0.0528 (at node 12)
Minimum accepted packet rate = 0.04545 (at node 4)
Average accepted packet rate = 0.0501125
Maximum accepted packet rate = 0.05235 (at node 9)
Minimum injected flit rate = 0.04735 (at node 6)
Average injected flit rate = 0.0500969
Maximum injected flit rate = 0.0528 (at node 12)
Minimum accepted flit rate = 0.04545 (at node 4)
Average accepted flit rate = 0.0501125
Maximum accepted flit rate = 0.05235 (at node 9)
Total number of injected packets = 16031
Total number of injected flits = 16031
Average injected packet length = 1
Total number of accepted packets = 16036
Total number of accepted flits = 16036
Average accepted packet length = 1
Total in-flight flits = 11 (11 measured)
class 0 latency change    = 0.00284525
class 0 throughput change = 0.00935395
===== Time: 40000 =====
Class 0:
Minimum packet latency = 6
Average packet latency = 18.9799
Maximum packet latency = 45
Minimum network latency = 7
Average network latency = 19.9281
Maximum network latency = 46
Slowest packet = 16316
Minimum flit latency = 7
Average flit latency = 19.9309
Maximum flit latency = 46
Slowest flit = 8655
Minimum fragmentation = 0
Average fragmentation = 0
Maximum fragmentation = 0
Minimum injected packet rate = 0.0473333 (at node 6)
Average injected packet rate = 0.0501292
Maximum injected packet rate = 0.0525333 (at node 12)
Minimum accepted packet rate = 0.0455333 (at node 4)
Average accepted packet rate = 0.0501333
Maximum accepted packet rate = 0.0522667 (at node 9)
Minimum injected flit rate = 0.0473333 (at node 6)
Average injected flit rate = 0.0501292
Maximum injected flit rate = 0.0525333 (at node 12)
Minimum accepted flit rate = 0.0455333 (at node 4)
Average accepted flit rate = 0.0501333
Maximum accepted flit rate = 0.0522667 (at node 9)
Total number of injected packets = 24062
Total number of injected flits = 24062
Average injected packet length = 1
Total number of accepted packets = 24064
Total number of accepted flits = 24064
Average accepted packet length = 1
Total in-flight flits = 14 (14 measured)
class 0 latency change    = 0.00156141
class 0 throughput change = 0.000415559
===== Time: 50000 =====
Class 0:
Minimum packet latency = 6
Average packet latency = 18.9314
Maximum packet latency = 45
Minimum network latency = 7
Average network latency = 19.8798
Maximum network latency = 46
Slowest packet = 38119
Minimum flit latency = 7
Average flit latency = 19.882
Maximum flit latency = 46
Slowest flit = 8655
Minimum fragmentation = 0
Average fragmentation = 0
Maximum fragmentation = 0
Minimum injected packet rate = 0.048025 (at node 6)
Average injected packet rate = 0.0501984
Maximum injected packet rate = 0.0519 (at node 12)
Minimum accepted packet rate = 0.0468 (at node 4)
Average accepted packet rate = 0.0502047
Maximum accepted packet rate = 0.052425 (at node 7)
Minimum injected flit rate = 0.048025 (at node 6)
Average injected flit rate = 0.0501984
Maximum injected flit rate = 0.0519 (at node 12)
Minimum accepted flit rate = 0.0468 (at node 4)
Average accepted flit rate = 0.0502047
Maximum accepted flit rate = 0.052425 (at node 7)
Total number of injected packets = 32127
Total number of injected flits = 32127
Average injected packet length = 1
Total number of accepted packets = 32131
Total number of accepted flits = 32131
Average accepted packet length = 1
Total in-flight flits = 12 (12 measured)
class 0 latency change    = 0.00256089
class 0 throughput change = 0.00142127
===== Time: 60000 =====
Class 0:
Minimum packet latency = 6
Average packet latency = 18.9059
Maximum packet latency = 45
Minimum network latency = 7
Average network latency = 19.8533
Maximum network latency = 46
Slowest packet = 38119
Minimum flit latency = 7
Average flit latency = 19.855
Maximum flit latency = 46
Slowest flit = 8655
Minimum fragmentation = 0
Average fragmentation = 0
Maximum fragmentation = 0
Minimum injected packet rate = 0.04848 (at node 6)
Average injected packet rate = 0.0501525
Maximum injected packet rate = 0.05134 (at node 13)
Minimum accepted packet rate = 0.04762 (at node 4)
Average accepted packet rate = 0.0501537
Maximum accepted packet rate = 0.05276 (at node 7)
Minimum injected flit rate = 0.04848 (at node 6)
Average injected flit rate = 0.0501525
Maximum injected flit rate = 0.05134 (at node 13)
Minimum accepted flit rate = 0.04762 (at node 4)
Average accepted flit rate = 0.0501537
Maximum accepted flit rate = 0.05276 (at node 7)
Total number of injected packets = 40122
Total number of injected flits = 40122
Average injected packet length = 1
Total number of accepted packets = 40123
Total number of accepted flits = 40123
Average accepted packet length = 1
Total in-flight flits = 15 (15 measured)
class 0 latency change    = 0.00135181
class 0 throughput change = 0.00101563
===== Time: 70000 =====
Class 0:
Minimum packet latency = 6
Average packet latency = 18.8843
Maximum packet latency = 45
Minimum network latency = 7
Average network latency = 19.831
Maximum network latency = 46
Slowest packet = 38119
Minimum flit latency = 7
Average flit latency = 19.8325
Maximum flit latency = 46
Slowest flit = 8655
Minimum fragmentation = 0
Average fragmentation = 0
Maximum fragmentation = 0
Minimum injected packet rate = 0.0484667 (at node 2)
Average injected packet rate = 0.0501219
Maximum injected packet rate = 0.05175 (at node 9)
Minimum accepted packet rate = 0.0477 (at node 4)
Average accepted packet rate = 0.0501219
Maximum accepted packet rate = 0.0523833 (at node 7)
Minimum injected flit rate = 0.0484667 (at node 2)
Average injected flit rate = 0.0501219
Maximum injected flit rate = 0.05175 (at node 9)
Minimum accepted flit rate = 0.0477 (at node 4)
Average accepted flit rate = 0.0501219
Maximum accepted flit rate = 0.0523833 (at node 7)
Total number of injected packets = 48117
Total number of injected flits = 48117
Average injected packet length = 1
Total number of accepted packets = 48117
Total number of accepted flits = 48117
Average accepted packet length = 1
Total in-flight flits = 16 (16 measured)
class 0 latency change    = 0.00114116
class 0 throughput change = 0.00063595
===== Time: 80000 =====
Class 0:
Minimum packet latency = 6
Average packet latency = 18.8917
Maximum packet latency = 45
Minimum network latency = 7
Average network latency = 19.8376
Maximum network latency = 46
Slowest packet = 38119
Minimum flit latency = 7
Average flit latency = 19.8389
Maximum flit latency = 46
Slowest flit = 8655
Minimum fragmentation = 0
Average fragmentation = 0
Maximum fragmentation = 0
Minimum injected packet rate = 0.0484 (at node 2)
Average injected packet rate = 0.0501295
Maximum injected packet rate = 0.0520429 (at node 9)
Minimum accepted packet rate = 0.0484857 (at node 4)
Average accepted packet rate = 0.0501268
Maximum accepted packet rate = 0.0524429 (at node 7)
Minimum injected flit rate = 0.0484 (at node 2)
Average injected flit rate = 0.0501295
Maximum injected flit rate = 0.0520429 (at node 9)
Minimum accepted flit rate = 0.0484857 (at node 4)
Average accepted flit rate = 0.0501268
Maximum accepted flit rate = 0.0524429 (at node 7)
Total number of injected packets = 56145
Total number of injected flits = 56145
Average injected packet length = 1
Total number of accepted packets = 56142
Total number of accepted flits = 56142
Average accepted packet length = 1
Total in-flight flits = 19 (19 measured)
class 0 latency change    = 0.000387884
class 0 throughput change = 9.79659e-05
===== Time: 90000 =====
Class 0:
Minimum packet latency = 6
Average packet latency = 18.8997
Maximum packet latency = 45
Minimum network latency = 7
Average network latency = 19.8456
Maximum network latency = 46
Slowest packet = 38119
Minimum flit latency = 7
Average flit latency = 19.8467
Maximum flit latency = 46
Slowest flit = 8655
Minimum fragmentation = 0
Average fragmentation = 0
Maximum fragmentation = 0
Minimum injected packet rate = 0.0485 (at node 1)
Average injected packet rate = 0.05025
Maximum injected packet rate = 0.051775 (at node 4)
Minimum accepted packet rate = 0.0489125 (at node 4)
Average accepted packet rate = 0.0502469
Maximum accepted packet rate = 0.0521625 (at node 7)
Minimum injected flit rate = 0.0485 (at node 1)
Average injected flit rate = 0.05025
Maximum injected flit rate = 0.051775 (at node 4)
Minimum accepted flit rate = 0.0489125 (at node 4)
Average accepted flit rate = 0.0502469
Maximum accepted flit rate = 0.0521625 (at node 7)
Total number of injected packets = 64320
Total number of injected flits = 64320
Average injected packet length = 1
Total number of accepted packets = 64316
Total number of accepted flits = 64316
Average accepted packet length = 1
Total in-flight flits = 20 (20 measured)
class 0 latency change    = 0.000425934
class 0 throughput change = 0.00238999
===== Time: 100000 =====
Class 0:
Minimum packet latency = 6
Average packet latency = 18.9093
Maximum packet latency = 46
Minimum network latency = 7
Average network latency = 19.8549
Maximum network latency = 46
Slowest packet = 75879
Minimum flit latency = 7
Average flit latency = 19.8558
Maximum flit latency = 46
Slowest flit = 8655
Minimum fragmentation = 0
Average fragmentation = 0
Maximum fragmentation = 0
Minimum injected packet rate = 0.0485444 (at node 1)
Average injected packet rate = 0.0501618
Maximum injected packet rate = 0.0515 (at node 4)
Minimum accepted packet rate = 0.0491222 (at node 13)
Average accepted packet rate = 0.0501653
Maximum accepted packet rate = 0.0519 (at node 7)
Minimum injected flit rate = 0.0485444 (at node 1)
Average injected flit rate = 0.0501618
Maximum injected flit rate = 0.0515 (at node 4)
Minimum accepted flit rate = 0.0491222 (at node 13)
Average accepted flit rate = 0.0501653
Maximum accepted flit rate = 0.0519 (at node 7)
Total number of injected packets = 72233
Total number of injected flits = 72233
Average injected packet length = 1
Total number of accepted packets = 72238
Total number of accepted flits = 72238
Average accepted packet length = 1
Total in-flight flits = 11 (11 measured)
class 0 latency change    = 0.00050784
class 0 throughput change = 0.00162657
Draining all recorded packets ...
Draining remaining packets ...
Time taken is 100058 cycles
====== Traffic class 0 ======

Total number of flits generated = 80174, changed lanes = 0
Overall minimum packet latency = 6 (1 samples)
Overall average packet latency = 18.9097 (1 samples)
Overall maximum packet latency = 46 (1 samples)
Overall minimum network latency = 7 (1 samples)
Overall average network latency = 19.8553 (1 samples)
Overall maximum network latency = 46 (1 samples)
Overall minimum flit latency = 7 (1 samples)
Overall average flit latency = 19.8561 (1 samples)
Overall maximum flit latency = 46 (1 samples)
Overall minimum fragmentation = 0 (1 samples)
Overall average fragmentation = 0 (1 samples)
Overall maximum fragmentation = 0 (1 samples)
Overall minimum injected packet rate = 0.0485444 (1 samples)
Overall average injected packet rate = 0.0501618 (1 samples)
Overall maximum injected packet rate = 0.0515 (1 samples)
Overall minimum accepted packet rate = 0.0491222 (1 samples)
Overall average accepted packet rate = 0.0501653 (1 samples)
Overall maximum accepted packet rate = 0.0519 (1 samples)
Overall minimum injected flit rate = 0.0485444 (1 samples)
Overall average injected flit rate = 0.0501618 (1 samples)
Overall maximum injected flit rate = 0.0515 (1 samples)
Overall minimum accepted flit rate = 0.0491222 (1 samples)
Overall average accepted flit rate = 0.0501653 (1 samples)
Overall maximum accepted flit rate = 0.0519 (1 samples)
Overall average injected packet size = 1 (1 samples)
Overall average accepted packet size = 1 (1 samples)
Overall average hops = 3.50424 (1 samples)
Overall throughput of the network (flits/cycle) = 0.890822
Overall throughput of the network (packets/cycle) = 0.890822
CSV Result Header , avgFLat,avgFInjRate
CSV Result ,19.8561,0.0501618

Power Report Header, Frequency, Time, StaticIQ, DynamicIQ, StaticVC, DynamicVC, StaticSA, DynamicSA, StaticST, DynamicST, StaticLink, DynamicLink, NoFlits, ePerFlit
Power Report,3.9e+08,100058,0.0329687,0.0141669,0.0018744,0.000416416,0.000562321,0.000389856,0.119399,0.00489204,0.0226366,0.0114237,80174,6.69275e-10

*****************************************
Total run time 5.46577
generate:0x7ffd67fe1790
delete:0x7ffd67fe1790
L = 2 K = 8.1 M = 2 N = 1
-----------------------------------------
- OCN Power Summary
- Completion Time:         100058
- Flit Widths:            64
- Channel Wire Power:      1.97822
- Channel Clock Power:     0.371137
- Channel Retiming Power:  0.0245783
- Channel Leakage Power:   0.139912
- Input Read Power:        0.0410192
- Input Write Power:       0.0410192
- Input Leakage Power:     0.0283116
- Switch Power:            0.0919855
- Switch Control Power:    0.0460535
- Switch Leakage Power:    0.192763
- Output DFF Power:        0.00956029
- Output Clk Power:        0.181781
- Output Control Power:    0.0049339
- Total Power:             3.15127
-----------------------------------------

-----------------------------------------
- OCN Area Summary
- Channel Area:  0.0278095
- Switch  Area:  0.060398
- Input  Area:   0.030199
- Output  Area:  0.00503316
- Total Area:    0.12344
-----------------------------------------
CSV Power Result Header , Completion Time, Channel Wire, Channel Clock, Channel Retiming, Channel Leakage, Input Read, Input Write, Input Leakage, Switch Power, Switch Control, Switch Leakage, Output DFF, Output Clk, Output Control
CSV Power Result , 100058, 1.97822, 0.371137, 0.0245783, 0.139912, 0.0410192, 0.0410192, 0.0283116, 0.0919855, 0.0460535, 0.192763, 0.00956029, 0.181781, 0.0049339
delete:0x7ffd67fe1790
delete:0x7ffd67fe1790
