generate:0x7ffe3e9e66f0
generate:0x7ffe3e9e6860
BEGIN Configuration File: interposer2
//topology
topology = mesh;
k = 8;
n = 2;
type = interposer;
// Routing
routing_function = dor;

// Flow control
num_vcs     = 2;
vc_buf_size = 8;
wait_for_tail_credit = 1;
hold_switch_for_packet = 1;

// Router architecture
vc_allocator = islip;
sw_allocator = islip;
alloc_iters  = 1;

credit_delay   = 0;
routing_delay  = 1;
vc_alloc_delay = 1;
sw_alloc_delay = 1;
st_final_delay = 1;

input_speedup     = 1;
output_speedup    = 1;
internal_speedup  = 1.0;
vc_busy_when_full = 0;


//granulaity
latency_thres=20000.0;
deadlock_warn_timeout=20000;
traceStretch=3;

//gating
doGating=0;
sleepThreshold=40;
breakEvenThreshold=80;



//Syn Traffic
//sim_type=latency;
sim_type=throughput;
traffic=uniform;
packet_size = 1;
sample_period=5000;
warmup_periods=1;
max_samples=11;
injection_rate=0.002;

creditDelays=creditDelays({0,0,0,0,0,0,0,0,0,0,0,0,0,0,0,0,0,0,0,0,0,0,0,0,0,0,0,0,0,0,0,0,0,0,0,0,0,0,0,0,0,0,0,0,0,0,0,0,0,0,0,0,0,0,0,0,0,0,0,0,0,0,0,0}});
routingDelays=routingDelays({15,15,15,15,15,15,15,15,15,15,15,15,15,15,15,15,15,15,15,15,15,15,15,15,15,15,15,15,15,15,15,15,15,15,15,15,15,15,15,15,15,15,15,15,15,15,15,15,15,15,15,15,15,15,15,15,15,15,15,15,15,15,15,15});
vcAllocDelays=vcAllocDelays({15,15,15,15,15,15,15,15,15,15,15,15,15,15,15,15,15,15,15,15,15,15,15,15,15,15,15,15,15,15,15,15,15,15,15,15,15,15,15,15,15,15,15,15,15,15,15,15,15,15,15,15,15,15,15,15,15,15,15,15,15,15,15,15});
swAllocDelays=swAllocDelays({15,15,15,15,15,15,15,15,15,15,15,15,15,15,15,15,15,15,15,15,15,15,15,15,15,15,15,15,15,15,15,15,15,15,15,15,15,15,15,15,15,15,15,15,15,15,15,15,15,15,15,15,15,15,15,15,15,15,15,15,15,15,15,15});
stFinalDelays=stFinalDelays({15,15,15,15,15,15,15,15,15,15,15,15,15,15,15,15,15,15,15,15,15,15,15,15,15,15,15,15,15,15,15,15,15,15,15,15,15,15,15,15,15,15,15,15,15,15,15,15,15,15,15,15,15,15,15,15,15,15,15,15,15,15,15,15});

isAsync=isAsync({1,1,1,1,1,1,1,1,1,1,1,1,1,1,1,1,1,1,1,1,1,1,1,1,1,1,1,1,1,1,1,1,1,1,1,1,1,1,1,1,1,1,1,1,1,1,1,1,1,1,1,1,1,1,1,1,1,1,1,1,1,1,1,1});
isMetaUnstable=isMetaUnstable({0,0,0,0,0,0,0,0,0,0,0,0,0,0,0,0,0,0,0,0,0,0,0,0,0,0,0,0,0,0,0,0,0,0,0,0,0,0,0,0,0,0,0,0,0,0,0,0,0,0,0,0,0,0,0,0,0,0,0,0,0,0,0,0});

creditDelayStdDevs=creditDelayStdDevs({0,0,0,0,0,0,0,0,0,0,0,0,0,0,0,0,0,0,0,0,0,0,0,0,0,0,0,0,0,0,0,0,0,0,0,0,0,0,0,0,0,0,0,0,0,0,0,0,0,0,0,0,0,0,0,0,0,0,0,0,0,0,0,0});
routingDelayStdDevs=routingDelayStdDevs({0,0,0,0,0,0,0,0,0,0,0,0,0,0,0,0,0,0,0,0,0,0,0,0,0,0,0,0,0,0,0,0,0,0,0,0,0,0,0,0,0,0,0,0,0,0,0,0,0,0,0,0,0,0,0,0,0,0,0,0,0,0,0,0});
vcAllocDelayStdDevs=vcAllocDelayStdDevs({0,0,0,0,0,0,0,0,0,0,0,0,0,0,0,0,0,0,0,0,0,0,0,0,0,0,0,0,0,0,0,0,0,0,0,0,0,0,0,0,0,0,0,0,0,0,0,0,0,0,0,0,0,0,0,0,0,0,0,0,0,0,0,0});
swAllocDelayStdDevs=swAllocDelayStdDevs({0,0,0,0,0,0,0,0,0,0,0,0,0,0,0,0,0,0,0,0,0,0,0,0,0,0,0,0,0,0,0,0,0,0,0,0,0,0,0,0,0,0,0,0,0,0,0,0,0,0,0,0,0,0,0,0,0,0,0,0,0,0,0,0});
stFinalDelayStdDevs=stFinalDelayStdDevs({0,0,0,0,0,0,0,0,0,0,0,0,0,0,0,0,0,0,0,0,0,0,0,0,0,0,0,0,0,0,0,0,0,0,0,0,0,0,0,0,0,0,0,0,0,0,0,0,0,0,0,0,0,0,0,0,0,0,0,0,0,0,0,0});

  
swAllocThresholds=swAllocThresholds({1,1,1,1,1,1,1,1,1,1,1,1,1,1,1,1,1,1,1,1,1,1,1,1,1,1,1,1,1,1,1,1,1,1,1,1,1,1,1,1,1,1,1,1,1,1,1,1,1,1,1,1,1,1,1,1,1,1,1,1,1,1,1,1});
swAllocThresholdStdDevs=swAllocThresholdStdDevs({0,0,0,0,0,0,0,0,0,0,0,0,0,0,0,0,0,0,0,0,0,0,0,0,0,0,0,0,0,0,0,0,0,0,0,0,0,0,0,0,0,0,0,0,0,0,0,0,0,0,0,0,0,0,0,0,0,0,0,0,0,0,0,0});
swAllocMetaStableThresholds=swAllocMetaStableThresholds({1,1,1,1,1,1,1,1,1,1,1,1,1,1,1,1,1,1,1,1,1,1,1,1,1,1,1,1,1,1,1,1,1,1,1,1,1,1,1,1,1,1,1,1,1,1,1,1,1,1,1,1,1,1,1,1,1,1,1,1,1,1,1,1});
swAllocMetaStableMaxPenalities=swAllocMetaStableMaxPenalities({0,0,0,0,0,0,0,0,0,0,0,0,0,0,0,0,0,0,0,0,0,0,0,0,0,0,0,0,0,0,0,0,0,0,0,0,0,0,0,0,0,0,0,0,0,0,0,0,0,0,0,0,0,0,0,0,0,0,0,0,0,0,0,0});

END Configuration File: interposer2
rid:0 add uselessoutput chan256
rid:1 add uselessoutput chan256
rid:2 add uselessoutput chan256
rid:3 add uselessoutput chan256
rid:4 add uselessoutput chan256
rid:5 add uselessoutput chan256
rid:6 add uselessoutput chan256
rid:7 add uselessoutput chan256
rid:8 add uselessoutput chan256
rid:9 add uselessoutput chan256
rid:10 add uselessoutput chan256
rid:11 add uselessoutput chan256
rid:12 add uselessoutput chan256
rid:13 add uselessoutput chan256
rid:14 add uselessoutput chan256
rid:15 add uselessoutput chan256
rid:16 add uselessoutput chan256
rid:17 add uselessoutput chan256
rid:18 add uselessoutput chan256
rid:19 add uselessoutput chan256
rid:20 add uselessoutput chan256
rid:21 add uselessoutput chan256
rid:22 add uselessoutput chan256
rid:23 add uselessoutput chan256
rid:24 add uselessoutput chan256
rid:25 add uselessoutput chan256
rid:26 add uselessoutput chan256
rid:27 add uselessoutput chan256
rid:28 add uselessoutput chan256
rid:29 add uselessoutput chan256
rid:30 add uselessoutput chan256
rid:31 add uselessoutput chan256
rid:32 add uselessoutput chan256
rid:33 add uselessoutput chan256
rid:34 add uselessoutput chan256
rid:35 add uselessoutput chan256
rid:36 add uselessoutput chan256
rid:37 add uselessoutput chan256
rid:38 add uselessoutput chan256
rid:39 add uselessoutput chan256
rid:40 add uselessoutput chan256
rid:41 add uselessoutput chan256
rid:42 add uselessoutput chan256
rid:43 add uselessoutput chan256
rid:44 add uselessoutput chan256
rid:45 add uselessoutput chan256
rid:46 add uselessoutput chan256
rid:47 add uselessoutput chan256
rid:48 add uselessoutput chan256
rid:49 add uselessoutput chan256
rid:50 add uselessoutput chan256
rid:51 add uselessoutput chan256
rid:52 add uselessoutput chan256
rid:53 add uselessoutput chan256
rid:54 add uselessoutput chan256
rid:55 add uselessoutput chan256
rid:56 add uselessoutput chan256
rid:57 add uselessoutput chan256
rid:58 add uselessoutput chan256
rid:59 add uselessoutput chan256
rid:60 add uselessoutput chan256
rid:61 add uselessoutput chan256
rid:62 add uselessoutput chan256
rid:63 add uselessoutput chan256

Tick: 0M
===== Time: 5000 =====
Class 0:
Minimum packet latency = 62
Average packet latency = 397.355
Maximum packet latency = 1005
Minimum network latency = 63
Average network latency = 398.251
Maximum network latency = 1006
Slowest packet = 89
Minimum flit latency = 63
Average flit latency = 398.251
Maximum flit latency = 1006
Slowest flit = 89
Minimum fragmentation = 0
Average fragmentation = 0
Maximum fragmentation = 0
Minimum injected packet rate = 0.0006 (at node 27)
Average injected packet rate = 0.0019
Maximum injected packet rate = 0.0036 (at node 43)
Minimum accepted packet rate = 0.0006 (at node 54)
Average accepted packet rate = 0.00176875
Maximum accepted packet rate = 0.0028 (at node 24)
Minimum injected flit rate = 0.0006 (at node 27)
Average injected flit rate = 0.0019
Maximum injected flit rate = 0.0036 (at node 43)
Minimum accepted flit rate = 0.0006 (at node 54)
Average accepted flit rate = 0.00176875
Maximum accepted flit rate = 0.0028 (at node 24)
Total number of injected packets = 608
Total number of injected flits = 608
Average injected packet length = 1
Total number of accepted packets = 566
Total number of accepted flits = 566
Average accepted packet length = 1
Total in-flight flits = 42 (0 measured)
class 0 latency change    = 1
class 0 throughput change = 1
Warmed up ...Time used is 5000 cycles
===== Time: 10000 =====
Class 0:
Minimum packet latency = 62
Average packet latency = 372.732
Maximum packet latency = 934
Minimum network latency = 63
Average network latency = 373.628
Maximum network latency = 935
Slowest packet = 1099
Minimum flit latency = 63
Average flit latency = 379.626
Maximum flit latency = 935
Slowest flit = 1099
Minimum fragmentation = 0
Average fragmentation = 0
Maximum fragmentation = 0
Minimum injected packet rate = 0.0006 (at node 0)
Average injected packet rate = 0.00200313
Maximum injected packet rate = 0.0034 (at node 45)
Minimum accepted packet rate = 0.0004 (at node 22)
Average accepted packet rate = 0.00197188
Maximum accepted packet rate = 0.004 (at node 51)
Minimum injected flit rate = 0.0006 (at node 0)
Average injected flit rate = 0.00200313
Maximum injected flit rate = 0.0034 (at node 45)
Minimum accepted flit rate = 0.0004 (at node 22)
Average accepted flit rate = 0.00197188
Maximum accepted flit rate = 0.004 (at node 51)
Total number of injected packets = 641
Total number of injected flits = 641
Average injected packet length = 1
Total number of accepted packets = 631
Total number of accepted flits = 631
Average accepted packet length = 1
Total in-flight flits = 52 (52 measured)
class 0 latency change    = 0.0660619
class 0 throughput change = 0.103011
===== Time: 15000 =====
Class 0:
Minimum packet latency = 62
Average packet latency = 389.364
Maximum packet latency = 934
Minimum network latency = 63
Average network latency = 390.28
Maximum network latency = 935
Slowest packet = 1099
Minimum flit latency = 63
Average flit latency = 392.672
Maximum flit latency = 935
Slowest flit = 1099
Minimum fragmentation = 0
Average fragmentation = 0
Maximum fragmentation = 0
Minimum injected packet rate = 0.0009 (at node 14)
Average injected packet rate = 0.00201563
Maximum injected packet rate = 0.0031 (at node 15)
Minimum accepted packet rate = 0.001 (at node 22)
Average accepted packet rate = 0.00201563
Maximum accepted packet rate = 0.0031 (at node 51)
Minimum injected flit rate = 0.0009 (at node 14)
Average injected flit rate = 0.00201563
Maximum injected flit rate = 0.0031 (at node 15)
Minimum accepted flit rate = 0.001 (at node 22)
Average accepted flit rate = 0.00201563
Maximum accepted flit rate = 0.0031 (at node 51)
Total number of injected packets = 1290
Total number of injected flits = 1290
Average injected packet length = 1
Total number of accepted packets = 1290
Total number of accepted flits = 1290
Average accepted packet length = 1
Total in-flight flits = 42 (42 measured)
class 0 latency change    = 0.0427159
class 0 throughput change = 0.0217054
===== Time: 20000 =====
Class 0:
Minimum packet latency = 62
Average packet latency = 390.239
Maximum packet latency = 934
Minimum network latency = 63
Average network latency = 391.168
Maximum network latency = 935
Slowest packet = 1099
Minimum flit latency = 63
Average flit latency = 392.767
Maximum flit latency = 935
Slowest flit = 1099
Minimum fragmentation = 0
Average fragmentation = 0
Maximum fragmentation = 0
Minimum injected packet rate = 0.000933333 (at node 18)
Average injected packet rate = 0.00200625
Maximum injected packet rate = 0.0028 (at node 53)
Minimum accepted packet rate = 0.00113333 (at node 23)
Average accepted packet rate = 0.00198646
Maximum accepted packet rate = 0.003 (at node 51)
Minimum injected flit rate = 0.000933333 (at node 18)
Average injected flit rate = 0.00200625
Maximum injected flit rate = 0.0028 (at node 53)
Minimum accepted flit rate = 0.00113333 (at node 23)
Average accepted flit rate = 0.00198646
Maximum accepted flit rate = 0.003 (at node 51)
Total number of injected packets = 1926
Total number of injected flits = 1926
Average injected packet length = 1
Total number of accepted packets = 1907
Total number of accepted flits = 1907
Average accepted packet length = 1
Total in-flight flits = 61 (61 measured)
class 0 latency change    = 0.00224314
class 0 throughput change = 0.0146827
===== Time: 25000 =====
Class 0:
Minimum packet latency = 62
Average packet latency = 392.418
Maximum packet latency = 934
Minimum network latency = 63
Average network latency = 393.335
Maximum network latency = 935
Slowest packet = 1099
Minimum flit latency = 63
Average flit latency = 394.487
Maximum flit latency = 935
Slowest flit = 1099
Minimum fragmentation = 0
Average fragmentation = 0
Maximum fragmentation = 0
Minimum injected packet rate = 0.00125 (at node 18)
Average injected packet rate = 0.00200859
Maximum injected packet rate = 0.00265 (at node 15)
Minimum accepted packet rate = 0.0013 (at node 46)
Average accepted packet rate = 0.00200469
Maximum accepted packet rate = 0.00275 (at node 49)
Minimum injected flit rate = 0.00125 (at node 18)
Average injected flit rate = 0.00200859
Maximum injected flit rate = 0.00265 (at node 15)
Minimum accepted flit rate = 0.0013 (at node 46)
Average accepted flit rate = 0.00200469
Maximum accepted flit rate = 0.00275 (at node 49)
Total number of injected packets = 2571
Total number of injected flits = 2571
Average injected packet length = 1
Total number of accepted packets = 2566
Total number of accepted flits = 2566
Average accepted packet length = 1
Total in-flight flits = 47 (47 measured)
class 0 latency change    = 0.00555336
class 0 throughput change = 0.00909327
===== Time: 30000 =====
Class 0:
Minimum packet latency = 62
Average packet latency = 392.834
Maximum packet latency = 992
Minimum network latency = 63
Average network latency = 393.764
Maximum network latency = 993
Slowest packet = 3628
Minimum flit latency = 63
Average flit latency = 394.678
Maximum flit latency = 993
Slowest flit = 3628
Minimum fragmentation = 0
Average fragmentation = 0
Maximum fragmentation = 0
Minimum injected packet rate = 0.0014 (at node 18)
Average injected packet rate = 0.0020175
Maximum injected packet rate = 0.00256 (at node 9)
Minimum accepted packet rate = 0.0014 (at node 22)
Average accepted packet rate = 0.00201062
Maximum accepted packet rate = 0.00276 (at node 49)
Minimum injected flit rate = 0.0014 (at node 18)
Average injected flit rate = 0.0020175
Maximum injected flit rate = 0.00256 (at node 9)
Minimum accepted flit rate = 0.0014 (at node 22)
Average accepted flit rate = 0.00201062
Maximum accepted flit rate = 0.00276 (at node 49)
Total number of injected packets = 3228
Total number of injected flits = 3228
Average injected packet length = 1
Total number of accepted packets = 3217
Total number of accepted flits = 3217
Average accepted packet length = 1
Total in-flight flits = 53 (53 measured)
class 0 latency change    = 0.00105723
class 0 throughput change = 0.00295306
===== Time: 35000 =====
Class 0:
Minimum packet latency = 62
Average packet latency = 393.004
Maximum packet latency = 992
Minimum network latency = 63
Average network latency = 393.943
Maximum network latency = 993
Slowest packet = 3628
Minimum flit latency = 63
Average flit latency = 394.699
Maximum flit latency = 993
Slowest flit = 3628
Minimum fragmentation = 0
Average fragmentation = 0
Maximum fragmentation = 0
Minimum injected packet rate = 0.00146667 (at node 19)
Average injected packet rate = 0.00201823
Maximum injected packet rate = 0.0026 (at node 15)
Minimum accepted packet rate = 0.00146667 (at node 22)
Average accepted packet rate = 0.00201979
Maximum accepted packet rate = 0.00256667 (at node 27)
Minimum injected flit rate = 0.00146667 (at node 19)
Average injected flit rate = 0.00201823
Maximum injected flit rate = 0.0026 (at node 15)
Minimum accepted flit rate = 0.00146667 (at node 22)
Average accepted flit rate = 0.00201979
Maximum accepted flit rate = 0.00256667 (at node 27)
Total number of injected packets = 3875
Total number of injected flits = 3875
Average injected packet length = 1
Total number of accepted packets = 3878
Total number of accepted flits = 3878
Average accepted packet length = 1
Total in-flight flits = 39 (39 measured)
class 0 latency change    = 0.000434425
class 0 throughput change = 0.00453842
===== Time: 40000 =====
Class 0:
Minimum packet latency = 62
Average packet latency = 393.572
Maximum packet latency = 992
Minimum network latency = 63
Average network latency = 394.509
Maximum network latency = 993
Slowest packet = 3628
Minimum flit latency = 63
Average flit latency = 395.145
Maximum flit latency = 993
Slowest flit = 3628
Minimum fragmentation = 0
Average fragmentation = 0
Maximum fragmentation = 0
Minimum injected packet rate = 0.00154286 (at node 30)
Average injected packet rate = 0.00204107
Maximum injected packet rate = 0.00262857 (at node 9)
Minimum accepted packet rate = 0.00154286 (at node 52)
Average accepted packet rate = 0.00203884
Maximum accepted packet rate = 0.0026 (at node 54)
Minimum injected flit rate = 0.00154286 (at node 30)
Average injected flit rate = 0.00204107
Maximum injected flit rate = 0.00262857 (at node 9)
Minimum accepted flit rate = 0.00154286 (at node 52)
Average accepted flit rate = 0.00203884
Maximum accepted flit rate = 0.0026 (at node 54)
Total number of injected packets = 4572
Total number of injected flits = 4572
Average injected packet length = 1
Total number of accepted packets = 4567
Total number of accepted flits = 4567
Average accepted packet length = 1
Total in-flight flits = 47 (47 measured)
class 0 latency change    = 0.00144137
class 0 throughput change = 0.00934238
===== Time: 45000 =====
Class 0:
Minimum packet latency = 62
Average packet latency = 392.124
Maximum packet latency = 992
Minimum network latency = 63
Average network latency = 393.062
Maximum network latency = 993
Slowest packet = 3628
Minimum flit latency = 63
Average flit latency = 393.637
Maximum flit latency = 993
Slowest flit = 3628
Minimum fragmentation = 0
Average fragmentation = 0
Maximum fragmentation = 0
Minimum injected packet rate = 0.001525 (at node 30)
Average injected packet rate = 0.00201836
Maximum injected packet rate = 0.002575 (at node 9)
Minimum accepted packet rate = 0.0015 (at node 52)
Average accepted packet rate = 0.00201836
Maximum accepted packet rate = 0.0025 (at node 54)
Minimum injected flit rate = 0.001525 (at node 30)
Average injected flit rate = 0.00201836
Maximum injected flit rate = 0.002575 (at node 9)
Minimum accepted flit rate = 0.0015 (at node 52)
Average accepted flit rate = 0.00201836
Maximum accepted flit rate = 0.0025 (at node 54)
Total number of injected packets = 5167
Total number of injected flits = 5167
Average injected packet length = 1
Total number of accepted packets = 5167
Total number of accepted flits = 5167
Average accepted packet length = 1
Total in-flight flits = 42 (42 measured)
class 0 latency change    = 0.00369273
class 0 throughput change = 0.0101468
===== Time: 50000 =====
Class 0:
Minimum packet latency = 62
Average packet latency = 392.499
Maximum packet latency = 992
Minimum network latency = 63
Average network latency = 393.436
Maximum network latency = 993
Slowest packet = 3628
Minimum flit latency = 63
Average flit latency = 393.941
Maximum flit latency = 993
Slowest flit = 3628
Minimum fragmentation = 0
Average fragmentation = 0
Maximum fragmentation = 0
Minimum injected packet rate = 0.00155556 (at node 21)
Average injected packet rate = 0.00202917
Maximum injected packet rate = 0.00255556 (at node 46)
Minimum accepted packet rate = 0.00151111 (at node 46)
Average accepted packet rate = 0.00202917
Maximum accepted packet rate = 0.00257778 (at node 49)
Minimum injected flit rate = 0.00155556 (at node 21)
Average injected flit rate = 0.00202917
Maximum injected flit rate = 0.00255556 (at node 46)
Minimum accepted flit rate = 0.00151111 (at node 46)
Average accepted flit rate = 0.00202917
Maximum accepted flit rate = 0.00257778 (at node 49)
Total number of injected packets = 5844
Total number of injected flits = 5844
Average injected packet length = 1
Total number of accepted packets = 5844
Total number of accepted flits = 5844
Average accepted packet length = 1
Total in-flight flits = 42 (42 measured)
class 0 latency change    = 0.000955637
class 0 throughput change = 0.00532598
===== Time: 55000 =====
Class 0:
Minimum packet latency = 62
Average packet latency = 392.48
Maximum packet latency = 992
Minimum network latency = 63
Average network latency = 393.418
Maximum network latency = 993
Slowest packet = 3628
Minimum flit latency = 63
Average flit latency = 393.878
Maximum flit latency = 993
Slowest flit = 3628
Minimum fragmentation = 0
Average fragmentation = 0
Maximum fragmentation = 0
Minimum injected packet rate = 0.00154 (at node 21)
Average injected packet rate = 0.00201469
Maximum injected packet rate = 0.00252 (at node 46)
Minimum accepted packet rate = 0.00154 (at node 52)
Average accepted packet rate = 0.00201
Maximum accepted packet rate = 0.00258 (at node 49)
Minimum injected flit rate = 0.00154 (at node 21)
Average injected flit rate = 0.00201469
Maximum injected flit rate = 0.00252 (at node 46)
Minimum accepted flit rate = 0.00154 (at node 52)
Average accepted flit rate = 0.00201
Maximum accepted flit rate = 0.00258 (at node 49)
Total number of injected packets = 6447
Total number of injected flits = 6447
Average injected packet length = 1
Total number of accepted packets = 6432
Total number of accepted flits = 6432
Average accepted packet length = 1
Total in-flight flits = 57 (57 measured)
class 0 latency change    = 4.83625e-05
class 0 throughput change = 0.00953566
Draining remaining packets ...
Time taken is 55497 cycles
====== Traffic class 0 ======

Total number of flits generated = 7055, changed lanes = 0
Overall minimum packet latency = 62 (1 samples)
Overall average packet latency = 393.122 (1 samples)
Overall maximum packet latency = 1044 (1 samples)
Overall minimum network latency = 63 (1 samples)
Overall average network latency = 394.061 (1 samples)
Overall maximum network latency = 1045 (1 samples)
Overall minimum flit latency = 63 (1 samples)
Overall average flit latency = 394.512 (1 samples)
Overall maximum flit latency = 1045 (1 samples)
Overall minimum fragmentation = 0 (1 samples)
Overall average fragmentation = 0 (1 samples)
Overall maximum fragmentation = 0 (1 samples)
Overall minimum injected packet rate = 0.00154 (1 samples)
Overall average injected packet rate = 0.00201469 (1 samples)
Overall maximum injected packet rate = 0.00252 (1 samples)
Overall minimum accepted packet rate = 0.00154 (1 samples)
Overall average accepted packet rate = 0.00201 (1 samples)
Overall maximum accepted packet rate = 0.00258 (1 samples)
Overall minimum injected flit rate = 0.00154 (1 samples)
Overall average injected flit rate = 0.00201469 (1 samples)
Overall maximum injected flit rate = 0.00252 (1 samples)
Overall minimum accepted flit rate = 0.00154 (1 samples)
Overall average accepted flit rate = 0.00201 (1 samples)
Overall maximum accepted flit rate = 0.00258 (1 samples)
Overall average injected packet size = 1 (1 samples)
Overall average accepted packet size = 1 (1 samples)
Overall average hops = 6.2232 (1 samples)
Overall throughput of the network (flits/cycle) = 0.1411
Overall throughput of the network (packets/cycle) = 0.1411
CSV Result Header , avgFLat,avgFInjRate
CSV Result ,394.512,0.00201469

Power Report Header, Frequency, Time, StaticIQ, DynamicIQ, StaticVC, DynamicVC, StaticSA, DynamicSA, StaticST, DynamicST, StaticLink, DynamicLink, NoFlits, ePerFlit
Power Report,3.9e+08,55497,0.131875,0.00400033,0.00749762,0.000118586,0.00224928,0.00010633,0.477597,0.00133898,0.0905466,0.00322572,7055,1.44957e-08

*****************************************
Total run time 6.21748
generate:0x7ffe3e9e6160
delete:0x7ffe3e9e6160
L = 2 K = 8.1 M = 2 N = 1
-----------------------------------------
- OCN Power Summary
- Completion Time:         55497
- Flit Widths:            64
- Channel Wire Power:      0.504246
- Channel Clock Power:     1.46183
- Channel Retiming Power:  0.00626498
- Channel Leakage Power:   0.551082
- Input Read Power:        0.0115827
- Input Write Power:       0.0115827
- Input Leakage Power:     0.113246
- Switch Power:            0.0251064
- Switch Control Power:    0.0130042
- Switch Leakage Power:    0.771052
- Output DFF Power:        0.00269955
- Output Clk Power:        0.727126
- Output Control Power:    0.00139319
- Total Power:             4.20021
-----------------------------------------

-----------------------------------------
- OCN Area Summary
- Channel Area:  0.109536
- Switch  Area:  0.241592
- Input  Area:   0.120796
- Output  Area:  0.0201327
- Total Area:    0.492056
-----------------------------------------
CSV Power Result Header , Completion Time, Channel Wire, Channel Clock, Channel Retiming, Channel Leakage, Input Read, Input Write, Input Leakage, Switch Power, Switch Control, Switch Leakage, Output DFF, Output Clk, Output Control
CSV Power Result , 55497, 0.504246, 1.46183, 0.00626498, 0.551082, 0.0115827, 0.0115827, 0.113246, 0.0251064, 0.0130042, 0.771052, 0.00269955, 0.727126, 0.00139319
delete:0x7ffe3e9e6160
delete:0x7ffe3e9e6160
