generate:0x7ffe935ac330
generate:0x7ffe935ac4a0
BEGIN Configuration File: interposer2
//topology
topology = mesh;
k = 8;
n = 2;
type = interposer;
// Routing
routing_function = dor;

// Flow control
num_vcs     = 2;
vc_buf_size = 8;
wait_for_tail_credit = 1;
hold_switch_for_packet = 1;

// Router architecture
vc_allocator = islip;
sw_allocator = islip;
alloc_iters  = 1;

credit_delay   = 0;
routing_delay  = 1;
vc_alloc_delay = 1;
sw_alloc_delay = 1;
st_final_delay = 1;

input_speedup     = 1;
output_speedup    = 1;
internal_speedup  = 1.0;
vc_busy_when_full = 0;


//granulaity
latency_thres=20000.0;
deadlock_warn_timeout=20000;
traceStretch=3;

//gating
doGating=0;
sleepThreshold=40;
breakEvenThreshold=80;



//Syn Traffic
//sim_type=latency;
sim_type=throughput;
traffic=uniform;
packet_size = 1;
sample_period=5000;
warmup_periods=1;
max_samples=11;
injection_rate=0.012;

creditDelays=creditDelays({0,0,0,0,0,0,0,0,0,0,0,0,0,0,0,0,0,0,0,0,0,0,0,0,0,0,0,0,0,0,0,0,0,0,0,0,0,0,0,0,0,0,0,0,0,0,0,0,0,0,0,0,0,0,0,0,0,0,0,0,0,0,0,0}});
routingDelays=routingDelays({15,15,15,15,15,15,15,15,15,15,15,15,15,15,15,15,15,15,15,15,15,15,15,15,15,15,15,15,15,15,15,15,15,15,15,15,15,15,15,15,15,15,15,15,15,15,15,15,15,15,15,15,15,15,15,15,15,15,15,15,15,15,15,15});
vcAllocDelays=vcAllocDelays({15,15,15,15,15,15,15,15,15,15,15,15,15,15,15,15,15,15,15,15,15,15,15,15,15,15,15,15,15,15,15,15,15,15,15,15,15,15,15,15,15,15,15,15,15,15,15,15,15,15,15,15,15,15,15,15,15,15,15,15,15,15,15,15});
swAllocDelays=swAllocDelays({15,15,15,15,15,15,15,15,15,15,15,15,15,15,15,15,15,15,15,15,15,15,15,15,15,15,15,15,15,15,15,15,15,15,15,15,15,15,15,15,15,15,15,15,15,15,15,15,15,15,15,15,15,15,15,15,15,15,15,15,15,15,15,15});
stFinalDelays=stFinalDelays({15,15,15,15,15,15,15,15,15,15,15,15,15,15,15,15,15,15,15,15,15,15,15,15,15,15,15,15,15,15,15,15,15,15,15,15,15,15,15,15,15,15,15,15,15,15,15,15,15,15,15,15,15,15,15,15,15,15,15,15,15,15,15,15});

isAsync=isAsync({1,1,1,1,1,1,1,1,1,1,1,1,1,1,1,1,1,1,1,1,1,1,1,1,1,1,1,1,1,1,1,1,1,1,1,1,1,1,1,1,1,1,1,1,1,1,1,1,1,1,1,1,1,1,1,1,1,1,1,1,1,1,1,1});
isMetaUnstable=isMetaUnstable({0,0,0,0,0,0,0,0,0,0,0,0,0,0,0,0,0,0,0,0,0,0,0,0,0,0,0,0,0,0,0,0,0,0,0,0,0,0,0,0,0,0,0,0,0,0,0,0,0,0,0,0,0,0,0,0,0,0,0,0,0,0,0,0});

creditDelayStdDevs=creditDelayStdDevs({0,0,0,0,0,0,0,0,0,0,0,0,0,0,0,0,0,0,0,0,0,0,0,0,0,0,0,0,0,0,0,0,0,0,0,0,0,0,0,0,0,0,0,0,0,0,0,0,0,0,0,0,0,0,0,0,0,0,0,0,0,0,0,0});
routingDelayStdDevs=routingDelayStdDevs({0,0,0,0,0,0,0,0,0,0,0,0,0,0,0,0,0,0,0,0,0,0,0,0,0,0,0,0,0,0,0,0,0,0,0,0,0,0,0,0,0,0,0,0,0,0,0,0,0,0,0,0,0,0,0,0,0,0,0,0,0,0,0,0});
vcAllocDelayStdDevs=vcAllocDelayStdDevs({0,0,0,0,0,0,0,0,0,0,0,0,0,0,0,0,0,0,0,0,0,0,0,0,0,0,0,0,0,0,0,0,0,0,0,0,0,0,0,0,0,0,0,0,0,0,0,0,0,0,0,0,0,0,0,0,0,0,0,0,0,0,0,0});
swAllocDelayStdDevs=swAllocDelayStdDevs({0,0,0,0,0,0,0,0,0,0,0,0,0,0,0,0,0,0,0,0,0,0,0,0,0,0,0,0,0,0,0,0,0,0,0,0,0,0,0,0,0,0,0,0,0,0,0,0,0,0,0,0,0,0,0,0,0,0,0,0,0,0,0,0});
stFinalDelayStdDevs=stFinalDelayStdDevs({0,0,0,0,0,0,0,0,0,0,0,0,0,0,0,0,0,0,0,0,0,0,0,0,0,0,0,0,0,0,0,0,0,0,0,0,0,0,0,0,0,0,0,0,0,0,0,0,0,0,0,0,0,0,0,0,0,0,0,0,0,0,0,0});

  
swAllocThresholds=swAllocThresholds({1,1,1,1,1,1,1,1,1,1,1,1,1,1,1,1,1,1,1,1,1,1,1,1,1,1,1,1,1,1,1,1,1,1,1,1,1,1,1,1,1,1,1,1,1,1,1,1,1,1,1,1,1,1,1,1,1,1,1,1,1,1,1,1});
swAllocThresholdStdDevs=swAllocThresholdStdDevs({0,0,0,0,0,0,0,0,0,0,0,0,0,0,0,0,0,0,0,0,0,0,0,0,0,0,0,0,0,0,0,0,0,0,0,0,0,0,0,0,0,0,0,0,0,0,0,0,0,0,0,0,0,0,0,0,0,0,0,0,0,0,0,0});
swAllocMetaStableThresholds=swAllocMetaStableThresholds({1,1,1,1,1,1,1,1,1,1,1,1,1,1,1,1,1,1,1,1,1,1,1,1,1,1,1,1,1,1,1,1,1,1,1,1,1,1,1,1,1,1,1,1,1,1,1,1,1,1,1,1,1,1,1,1,1,1,1,1,1,1,1,1});
swAllocMetaStableMaxPenalities=swAllocMetaStableMaxPenalities({0,0,0,0,0,0,0,0,0,0,0,0,0,0,0,0,0,0,0,0,0,0,0,0,0,0,0,0,0,0,0,0,0,0,0,0,0,0,0,0,0,0,0,0,0,0,0,0,0,0,0,0,0,0,0,0,0,0,0,0,0,0,0,0});

END Configuration File: interposer2
rid:0 add uselessoutput chan256
rid:1 add uselessoutput chan256
rid:2 add uselessoutput chan256
rid:3 add uselessoutput chan256
rid:4 add uselessoutput chan256
rid:5 add uselessoutput chan256
rid:6 add uselessoutput chan256
rid:7 add uselessoutput chan256
rid:8 add uselessoutput chan256
rid:9 add uselessoutput chan256
rid:10 add uselessoutput chan256
rid:11 add uselessoutput chan256
rid:12 add uselessoutput chan256
rid:13 add uselessoutput chan256
rid:14 add uselessoutput chan256
rid:15 add uselessoutput chan256
rid:16 add uselessoutput chan256
rid:17 add uselessoutput chan256
rid:18 add uselessoutput chan256
rid:19 add uselessoutput chan256
rid:20 add uselessoutput chan256
rid:21 add uselessoutput chan256
rid:22 add uselessoutput chan256
rid:23 add uselessoutput chan256
rid:24 add uselessoutput chan256
rid:25 add uselessoutput chan256
rid:26 add uselessoutput chan256
rid:27 add uselessoutput chan256
rid:28 add uselessoutput chan256
rid:29 add uselessoutput chan256
rid:30 add uselessoutput chan256
rid:31 add uselessoutput chan256
rid:32 add uselessoutput chan256
rid:33 add uselessoutput chan256
rid:34 add uselessoutput chan256
rid:35 add uselessoutput chan256
rid:36 add uselessoutput chan256
rid:37 add uselessoutput chan256
rid:38 add uselessoutput chan256
rid:39 add uselessoutput chan256
rid:40 add uselessoutput chan256
rid:41 add uselessoutput chan256
rid:42 add uselessoutput chan256
rid:43 add uselessoutput chan256
rid:44 add uselessoutput chan256
rid:45 add uselessoutput chan256
rid:46 add uselessoutput chan256
rid:47 add uselessoutput chan256
rid:48 add uselessoutput chan256
rid:49 add uselessoutput chan256
rid:50 add uselessoutput chan256
rid:51 add uselessoutput chan256
rid:52 add uselessoutput chan256
rid:53 add uselessoutput chan256
rid:54 add uselessoutput chan256
rid:55 add uselessoutput chan256
rid:56 add uselessoutput chan256
rid:57 add uselessoutput chan256
rid:58 add uselessoutput chan256
rid:59 add uselessoutput chan256
rid:60 add uselessoutput chan256
rid:61 add uselessoutput chan256
rid:62 add uselessoutput chan256
rid:63 add uselessoutput chan256

Tick: 0M
===== Time: 5000 =====
Class 0:
Minimum packet latency = 62
Average packet latency = 1173.83
Maximum packet latency = 3978
Minimum network latency = 63
Average network latency = 769.275
Maximum network latency = 3569
Slowest packet = 418
Minimum flit latency = 63
Average flit latency = 769.275
Maximum flit latency = 3569
Slowest flit = 418
Minimum fragmentation = 0
Average fragmentation = 0
Maximum fragmentation = 0
Minimum injected packet rate = 0.0028 (at node 22)
Average injected packet rate = 0.00693437
Maximum injected packet rate = 0.0122 (at node 11)
Minimum accepted packet rate = 0.0038 (at node 22)
Average accepted packet rate = 0.00573437
Maximum accepted packet rate = 0.008 (at node 12)
Minimum injected flit rate = 0.0028 (at node 22)
Average injected flit rate = 0.00693437
Maximum injected flit rate = 0.0122 (at node 11)
Minimum accepted flit rate = 0.0038 (at node 22)
Average accepted flit rate = 0.00573437
Maximum accepted flit rate = 0.008 (at node 12)
Total number of injected packets = 2219
Total number of injected flits = 2219
Average injected packet length = 1
Total number of accepted packets = 1835
Total number of accepted flits = 1835
Average accepted packet length = 1
Total in-flight flits = 446 (0 measured)
class 0 latency change    = 1
class 0 throughput change = 1
Warmed up ...Time used is 5000 cycles
===== Time: 10000 =====
Class 0:
Minimum packet latency = 148
Average packet latency = 3063.45
Maximum packet latency = 8107
Minimum network latency = 75
Average network latency = 854.873
Maximum network latency = 3967
Slowest packet = 2328
Minimum flit latency = 75
Average flit latency = 997.292
Maximum flit latency = 5289
Slowest flit = 737
Minimum fragmentation = 0
Average fragmentation = 0
Maximum fragmentation = 0
Minimum injected packet rate = 0.002 (at node 8)
Average injected packet rate = 0.00580313
Maximum injected packet rate = 0.0126 (at node 28)
Minimum accepted packet rate = 0.0034 (at node 10)
Average accepted packet rate = 0.00585938
Maximum accepted packet rate = 0.0082 (at node 40)
Minimum injected flit rate = 0.002 (at node 8)
Average injected flit rate = 0.00580313
Maximum injected flit rate = 0.0126 (at node 28)
Minimum accepted flit rate = 0.0034 (at node 10)
Average accepted flit rate = 0.00585938
Maximum accepted flit rate = 0.0082 (at node 40)
Total number of injected packets = 1857
Total number of injected flits = 1857
Average injected packet length = 1
Total number of accepted packets = 1875
Total number of accepted flits = 1875
Average accepted packet length = 1
Total in-flight flits = 429 (429 measured)
class 0 latency change    = 0.616826
class 0 throughput change = 0.0213333
===== Time: 15000 =====
Class 0:
Minimum packet latency = 86
Average packet latency = 4055.55
Maximum packet latency = 12369
Minimum network latency = 75
Average network latency = 925.613
Maximum network latency = 5738
Slowest packet = 2328
Minimum flit latency = 75
Average flit latency = 988.109
Maximum flit latency = 5738
Slowest flit = 2517
Minimum fragmentation = 0
Average fragmentation = 0
Maximum fragmentation = 0
Minimum injected packet rate = 0.0025 (at node 9)
Average injected packet rate = 0.00588437
Maximum injected packet rate = 0.012 (at node 28)
Minimum accepted packet rate = 0.004 (at node 52)
Average accepted packet rate = 0.0058875
Maximum accepted packet rate = 0.0078 (at node 54)
Minimum injected flit rate = 0.0025 (at node 9)
Average injected flit rate = 0.00588437
Maximum injected flit rate = 0.012 (at node 28)
Minimum accepted flit rate = 0.004 (at node 52)
Average accepted flit rate = 0.0058875
Maximum accepted flit rate = 0.0078 (at node 54)
Total number of injected packets = 3766
Total number of injected flits = 3766
Average injected packet length = 1
Total number of accepted packets = 3768
Total number of accepted flits = 3768
Average accepted packet length = 1
Total in-flight flits = 445 (445 measured)
class 0 latency change    = 0.244627
class 0 throughput change = 0.00477707
===== Time: 20000 =====
Class 0:
Minimum packet latency = 86
Average packet latency = 5108.88
Maximum packet latency = 15992
Minimum network latency = 68
Average network latency = 943.308
Maximum network latency = 5738
Slowest packet = 2328
Minimum flit latency = 68
Average flit latency = 983.216
Maximum flit latency = 5738
Slowest flit = 2517
Minimum fragmentation = 0
Average fragmentation = 0
Maximum fragmentation = 0
Minimum injected packet rate = 0.00233333 (at node 56)
Average injected packet rate = 0.0059125
Maximum injected packet rate = 0.0116667 (at node 28)
Minimum accepted packet rate = 0.00433333 (at node 10)
Average accepted packet rate = 0.00594062
Maximum accepted packet rate = 0.0076 (at node 49)
Minimum injected flit rate = 0.00233333 (at node 56)
Average injected flit rate = 0.0059125
Maximum injected flit rate = 0.0116667 (at node 28)
Minimum accepted flit rate = 0.00433333 (at node 10)
Average accepted flit rate = 0.00594062
Maximum accepted flit rate = 0.0076 (at node 49)
Total number of injected packets = 5676
Total number of injected flits = 5676
Average injected packet length = 1
Total number of accepted packets = 5703
Total number of accepted flits = 5703
Average accepted packet length = 1
Total in-flight flits = 420 (420 measured)
class 0 latency change    = 0.206177
class 0 throughput change = 0.00894266
===== Time: 25000 =====
Class 0:
Minimum packet latency = 86
Average packet latency = 6094.39
Maximum packet latency = 19883
Minimum network latency = 68
Average network latency = 947.851
Maximum network latency = 5738
Slowest packet = 2328
Minimum flit latency = 68
Average flit latency = 977.268
Maximum flit latency = 5738
Slowest flit = 2517
Minimum fragmentation = 0
Average fragmentation = 0
Maximum fragmentation = 0
Minimum injected packet rate = 0.00225 (at node 25)
Average injected packet rate = 0.00598281
Maximum injected packet rate = 0.0121 (at node 28)
Minimum accepted packet rate = 0.00435 (at node 52)
Average accepted packet rate = 0.00599063
Maximum accepted packet rate = 0.00725 (at node 47)
Minimum injected flit rate = 0.00225 (at node 25)
Average injected flit rate = 0.00598281
Maximum injected flit rate = 0.0121 (at node 28)
Minimum accepted flit rate = 0.00435 (at node 52)
Average accepted flit rate = 0.00599063
Maximum accepted flit rate = 0.00725 (at node 47)
Total number of injected packets = 7658
Total number of injected flits = 7658
Average injected packet length = 1
Total number of accepted packets = 7668
Total number of accepted flits = 7668
Average accepted packet length = 1
Total in-flight flits = 438 (438 measured)
class 0 latency change    = 0.161709
class 0 throughput change = 0.00834637
===== Time: 30000 =====
Class 0:
Minimum packet latency = 86
Average packet latency = 7052.61
Maximum packet latency = 23300
Minimum network latency = 68
Average network latency = 953.236
Maximum network latency = 5738
Slowest packet = 2328
Minimum flit latency = 68
Average flit latency = 976.631
Maximum flit latency = 5738
Slowest flit = 2517
Minimum fragmentation = 0
Average fragmentation = 0
Maximum fragmentation = 0
Minimum injected packet rate = 0.00248 (at node 25)
Average injected packet rate = 0.00595375
Maximum injected packet rate = 0.01176 (at node 28)
Minimum accepted packet rate = 0.00436 (at node 52)
Average accepted packet rate = 0.00596188
Maximum accepted packet rate = 0.00716 (at node 24)
Minimum injected flit rate = 0.00248 (at node 25)
Average injected flit rate = 0.00595375
Maximum injected flit rate = 0.01176 (at node 28)
Minimum accepted flit rate = 0.00436 (at node 52)
Average accepted flit rate = 0.00596188
Maximum accepted flit rate = 0.00716 (at node 24)
Total number of injected packets = 9526
Total number of injected flits = 9526
Average injected packet length = 1
Total number of accepted packets = 9539
Total number of accepted flits = 9539
Average accepted packet length = 1
Total in-flight flits = 435 (435 measured)
class 0 latency change    = 0.135867
class 0 throughput change = 0.00482231
===== Time: 35000 =====
Class 0:
Minimum packet latency = 86
Average packet latency = 8044.18
Maximum packet latency = 27216
Minimum network latency = 68
Average network latency = 959.269
Maximum network latency = 6503
Slowest packet = 2328
Minimum flit latency = 68
Average flit latency = 978.595
Maximum flit latency = 6503
Slowest flit = 10135
Minimum fragmentation = 0
Average fragmentation = 0
Maximum fragmentation = 0
Minimum injected packet rate = 0.00256667 (at node 25)
Average injected packet rate = 0.00594323
Maximum injected packet rate = 0.0115333 (at node 28)
Minimum accepted packet rate = 0.00426667 (at node 52)
Average accepted packet rate = 0.00594167
Maximum accepted packet rate = 0.00706667 (at node 24)
Minimum injected flit rate = 0.00256667 (at node 25)
Average injected flit rate = 0.00594323
Maximum injected flit rate = 0.0115333 (at node 28)
Minimum accepted flit rate = 0.00426667 (at node 52)
Average accepted flit rate = 0.00594167
Maximum accepted flit rate = 0.00706667 (at node 24)
Total number of injected packets = 11411
Total number of injected flits = 11411
Average injected packet length = 1
Total number of accepted packets = 11408
Total number of accepted flits = 11408
Average accepted packet length = 1
Total in-flight flits = 450 (450 measured)
class 0 latency change    = 0.123266
class 0 throughput change = 0.00340112
===== Time: 40000 =====
Class 0:
Minimum packet latency = 86
Average packet latency = 9033.82
Maximum packet latency = 30338
Minimum network latency = 68
Average network latency = 960.583
Maximum network latency = 7435
Slowest packet = 2328
Minimum flit latency = 68
Average flit latency = 977.051
Maximum flit latency = 7435
Slowest flit = 12579
Minimum fragmentation = 0
Average fragmentation = 0
Maximum fragmentation = 0
Minimum injected packet rate = 0.00254286 (at node 25)
Average injected packet rate = 0.00596384
Maximum injected packet rate = 0.0117143 (at node 28)
Minimum accepted packet rate = 0.00457143 (at node 52)
Average accepted packet rate = 0.00596071
Maximum accepted packet rate = 0.00702857 (at node 24)
Minimum injected flit rate = 0.00254286 (at node 25)
Average injected flit rate = 0.00596384
Maximum injected flit rate = 0.0117143 (at node 28)
Minimum accepted flit rate = 0.00457143 (at node 52)
Average accepted flit rate = 0.00596071
Maximum accepted flit rate = 0.00702857 (at node 24)
Total number of injected packets = 13359
Total number of injected flits = 13359
Average injected packet length = 1
Total number of accepted packets = 13352
Total number of accepted flits = 13352
Average accepted packet length = 1
Total in-flight flits = 455 (455 measured)
class 0 latency change    = 0.109548
class 0 throughput change = 0.00319553
===== Time: 45000 =====
Class 0:
Minimum packet latency = 86
Average packet latency = 9937.63
Maximum packet latency = 34291
Minimum network latency = 68
Average network latency = 963.85
Maximum network latency = 7522
Slowest packet = 2328
Minimum flit latency = 68
Average flit latency = 978.138
Maximum flit latency = 7522
Slowest flit = 12624
Minimum fragmentation = 0
Average fragmentation = 0
Maximum fragmentation = 0
Minimum injected packet rate = 0.00265 (at node 55)
Average injected packet rate = 0.00596797
Maximum injected packet rate = 0.01175 (at node 28)
Minimum accepted packet rate = 0.0047 (at node 52)
Average accepted packet rate = 0.00597148
Maximum accepted packet rate = 0.00675 (at node 11)
Minimum injected flit rate = 0.00265 (at node 55)
Average injected flit rate = 0.00596797
Maximum injected flit rate = 0.01175 (at node 28)
Minimum accepted flit rate = 0.0047 (at node 52)
Average accepted flit rate = 0.00597148
Maximum accepted flit rate = 0.00675 (at node 11)
Total number of injected packets = 15278
Total number of injected flits = 15278
Average injected packet length = 1
Total number of accepted packets = 15287
Total number of accepted flits = 15287
Average accepted packet length = 1
Total in-flight flits = 438 (438 measured)
class 0 latency change    = 0.0909486
class 0 throughput change = 0.00180359
===== Time: 50000 =====
Class 0:
Minimum packet latency = 86
Average packet latency = 10968.4
Maximum packet latency = 38181
Minimum network latency = 63
Average network latency = 966.149
Maximum network latency = 7522
Slowest packet = 2328
Minimum flit latency = 63
Average flit latency = 978.834
Maximum flit latency = 7522
Slowest flit = 12624
Minimum fragmentation = 0
Average fragmentation = 0
Maximum fragmentation = 0
Minimum injected packet rate = 0.00266667 (at node 25)
Average injected packet rate = 0.00594653
Maximum injected packet rate = 0.0115778 (at node 28)
Minimum accepted packet rate = 0.00488889 (at node 52)
Average accepted packet rate = 0.00595104
Maximum accepted packet rate = 0.00673333 (at node 16)
Minimum injected flit rate = 0.00266667 (at node 25)
Average injected flit rate = 0.00594653
Maximum injected flit rate = 0.0115778 (at node 28)
Minimum accepted flit rate = 0.00488889 (at node 52)
Average accepted flit rate = 0.00595104
Maximum accepted flit rate = 0.00673333 (at node 16)
Total number of injected packets = 17126
Total number of injected flits = 17126
Average injected packet length = 1
Total number of accepted packets = 17139
Total number of accepted flits = 17139
Average accepted packet length = 1
Total in-flight flits = 434 (434 measured)
class 0 latency change    = 0.0939776
class 0 throughput change = 0.00343515
===== Time: 55000 =====
Class 0:
Minimum packet latency = 86
Average packet latency = 11843.1
Maximum packet latency = 41370
Minimum network latency = 63
Average network latency = 966.062
Maximum network latency = 7522
Slowest packet = 2328
Minimum flit latency = 63
Average flit latency = 977.478
Maximum flit latency = 7522
Slowest flit = 12624
Minimum fragmentation = 0
Average fragmentation = 0
Maximum fragmentation = 0
Minimum injected packet rate = 0.0028 (at node 25)
Average injected packet rate = 0.005945
Maximum injected packet rate = 0.01168 (at node 28)
Minimum accepted packet rate = 0.0049 (at node 52)
Average accepted packet rate = 0.00595219
Maximum accepted packet rate = 0.00672 (at node 38)
Minimum injected flit rate = 0.0028 (at node 25)
Average injected flit rate = 0.005945
Maximum injected flit rate = 0.01168 (at node 28)
Minimum accepted flit rate = 0.0049 (at node 52)
Average accepted flit rate = 0.00595219
Maximum accepted flit rate = 0.00672 (at node 38)
Total number of injected packets = 19024
Total number of injected flits = 19024
Average injected packet length = 1
Total number of accepted packets = 19047
Total number of accepted flits = 19047
Average accepted packet length = 1
Total in-flight flits = 425 (425 measured)
class 0 latency change    = 0.0738571
class 0 throughput change = 0.000192506
Draining remaining packets ...
Class 0:
Remaining flits: 19620 19892 19899 19953 20040 20066 20135 20144 20303 20377 [...] (84 flits)
Measured flits: 19620 19892 19899 19953 20040 20066 20135 20144 20303 20377 [...] (84 flits)
Time taken is 56956 cycles
====== Traffic class 0 ======

Total number of flits generated = 21307, changed lanes = 0
Overall minimum packet latency = 86 (1 samples)
Overall average packet latency = 12193.6 (1 samples)
Overall maximum packet latency = 42588 (1 samples)
Overall minimum network latency = 63 (1 samples)
Overall average network latency = 974.449 (1 samples)
Overall maximum network latency = 7522 (1 samples)
Overall minimum flit latency = 63 (1 samples)
Overall average flit latency = 985.424 (1 samples)
Overall maximum flit latency = 7522 (1 samples)
Overall minimum fragmentation = 0 (1 samples)
Overall average fragmentation = 0 (1 samples)
Overall maximum fragmentation = 0 (1 samples)
Overall minimum injected packet rate = 0.0028 (1 samples)
Overall average injected packet rate = 0.005945 (1 samples)
Overall maximum injected packet rate = 0.01168 (1 samples)
Overall minimum accepted packet rate = 0.0049 (1 samples)
Overall average accepted packet rate = 0.00595219 (1 samples)
Overall maximum accepted packet rate = 0.00672 (1 samples)
Overall minimum injected flit rate = 0.0028 (1 samples)
Overall average injected flit rate = 0.005945 (1 samples)
Overall maximum injected flit rate = 0.01168 (1 samples)
Overall minimum accepted flit rate = 0.0049 (1 samples)
Overall average accepted flit rate = 0.00595219 (1 samples)
Overall maximum accepted flit rate = 0.00672 (1 samples)
Overall average injected packet size = 1 (1 samples)
Overall average accepted packet size = 1 (1 samples)
Overall average hops = 6.02213 (1 samples)
Overall throughput of the network (flits/cycle) = 0.42614
Overall throughput of the network (packets/cycle) = 0.42614
CSV Result Header , avgFLat,avgFInjRate
CSV Result ,985.424,0.005945

Power Report Header, Frequency, Time, StaticIQ, DynamicIQ, StaticVC, DynamicVC, StaticSA, DynamicSA, StaticST, DynamicST, StaticLink, DynamicLink, NoFlits, ePerFlit
Power Report,3.9e+08,56956,0.131875,0.0113654,0.00749762,0.000334592,0.00224928,0.000305176,0.477597,0.00383714,0.0905466,0.00916463,21307,5.03852e-09

*****************************************
Total run time 11.9353
generate:0x7ffe935abda0
delete:0x7ffe935abda0
L = 2 K = 8.1 M = 2 N = 1
-----------------------------------------
- OCN Power Summary
- Completion Time:         56956
- Flit Widths:            64
- Channel Wire Power:      1.4397
- Channel Clock Power:     1.46183
- Channel Retiming Power:  0.0178875
- Channel Leakage Power:   0.551082
- Input Read Power:        0.0329076
- Input Write Power:       0.0329076
- Input Leakage Power:     0.113246
- Switch Power:            0.0716358
- Switch Control Power:    0.0369463
- Switch Leakage Power:    0.771052
- Output DFF Power:        0.00766973
- Output Clk Power:        0.727126
- Output Control Power:    0.00395821
- Total Power:             5.26795
-----------------------------------------

-----------------------------------------
- OCN Area Summary
- Channel Area:  0.109536
- Switch  Area:  0.241592
- Input  Area:   0.120796
- Output  Area:  0.0201327
- Total Area:    0.492056
-----------------------------------------
CSV Power Result Header , Completion Time, Channel Wire, Channel Clock, Channel Retiming, Channel Leakage, Input Read, Input Write, Input Leakage, Switch Power, Switch Control, Switch Leakage, Output DFF, Output Clk, Output Control
CSV Power Result , 56956, 1.4397, 1.46183, 0.0178875, 0.551082, 0.0329076, 0.0329076, 0.113246, 0.0716358, 0.0369463, 0.771052, 0.00766973, 0.727126, 0.00395821
delete:0x7ffe935abda0
delete:0x7ffe935abda0
