generate:0x7ffda7515780
generate:0x7ffda75158f0
BEGIN Configuration File: interposer2
//topology
topology = mesh;
k = 8;
n = 2;
type = interposer;
// Routing
routing_function = dor;

// Flow control
num_vcs     = 2;
vc_buf_size = 8;
wait_for_tail_credit = 1;
hold_switch_for_packet = 1;

// Router architecture
vc_allocator = islip;
sw_allocator = islip;
alloc_iters  = 1;

credit_delay   = 0;
routing_delay  = 1;
vc_alloc_delay = 1;
sw_alloc_delay = 1;
st_final_delay = 1;

input_speedup     = 1;
output_speedup    = 1;
internal_speedup  = 1.0;
vc_busy_when_full = 0;


//granulaity
latency_thres=20000.0;
deadlock_warn_timeout=20000;
traceStretch=3;

//gating
doGating=0;
sleepThreshold=40;
breakEvenThreshold=80;



//Syn Traffic
//sim_type=latency;
sim_type=throughput;
traffic=uniform;
packet_size = 1;
sample_period=5000;
warmup_periods=1;
max_samples=11;
injection_rate=0.006;

creditDelays=creditDelays({0,0,0,0,0,0,0,0,0,0,0,0,0,0,0,0,0,0,0,0,0,0,0,0,0,0,0,0,0,0,0,0,0,0,0,0,0,0,0,0,0,0,0,0,0,0,0,0,0,0,0,0,0,0,0,0,0,0,0,0,0,0,0,0}});
routingDelays=routingDelays({15,15,15,15,15,15,15,15,15,15,15,15,15,15,15,15,15,15,15,15,15,15,15,15,15,15,15,15,15,15,15,15,15,15,15,15,15,15,15,15,15,15,15,15,15,15,15,15,15,15,15,15,15,15,15,15,15,15,15,15,15,15,15,15});
vcAllocDelays=vcAllocDelays({15,15,15,15,15,15,15,15,15,15,15,15,15,15,15,15,15,15,15,15,15,15,15,15,15,15,15,15,15,15,15,15,15,15,15,15,15,15,15,15,15,15,15,15,15,15,15,15,15,15,15,15,15,15,15,15,15,15,15,15,15,15,15,15});
swAllocDelays=swAllocDelays({15,15,15,15,15,15,15,15,15,15,15,15,15,15,15,15,15,15,15,15,15,15,15,15,15,15,15,15,15,15,15,15,15,15,15,15,15,15,15,15,15,15,15,15,15,15,15,15,15,15,15,15,15,15,15,15,15,15,15,15,15,15,15,15});
stFinalDelays=stFinalDelays({15,15,15,15,15,15,15,15,15,15,15,15,15,15,15,15,15,15,15,15,15,15,15,15,15,15,15,15,15,15,15,15,15,15,15,15,15,15,15,15,15,15,15,15,15,15,15,15,15,15,15,15,15,15,15,15,15,15,15,15,15,15,15,15});

isAsync=isAsync({1,1,1,1,1,1,1,1,1,1,1,1,1,1,1,1,1,1,1,1,1,1,1,1,1,1,1,1,1,1,1,1,1,1,1,1,1,1,1,1,1,1,1,1,1,1,1,1,1,1,1,1,1,1,1,1,1,1,1,1,1,1,1,1});
isMetaUnstable=isMetaUnstable({0,0,0,0,0,0,0,0,0,0,0,0,0,0,0,0,0,0,0,0,0,0,0,0,0,0,0,0,0,0,0,0,0,0,0,0,0,0,0,0,0,0,0,0,0,0,0,0,0,0,0,0,0,0,0,0,0,0,0,0,0,0,0,0});

creditDelayStdDevs=creditDelayStdDevs({0,0,0,0,0,0,0,0,0,0,0,0,0,0,0,0,0,0,0,0,0,0,0,0,0,0,0,0,0,0,0,0,0,0,0,0,0,0,0,0,0,0,0,0,0,0,0,0,0,0,0,0,0,0,0,0,0,0,0,0,0,0,0,0});
routingDelayStdDevs=routingDelayStdDevs({0,0,0,0,0,0,0,0,0,0,0,0,0,0,0,0,0,0,0,0,0,0,0,0,0,0,0,0,0,0,0,0,0,0,0,0,0,0,0,0,0,0,0,0,0,0,0,0,0,0,0,0,0,0,0,0,0,0,0,0,0,0,0,0});
vcAllocDelayStdDevs=vcAllocDelayStdDevs({0,0,0,0,0,0,0,0,0,0,0,0,0,0,0,0,0,0,0,0,0,0,0,0,0,0,0,0,0,0,0,0,0,0,0,0,0,0,0,0,0,0,0,0,0,0,0,0,0,0,0,0,0,0,0,0,0,0,0,0,0,0,0,0});
swAllocDelayStdDevs=swAllocDelayStdDevs({0,0,0,0,0,0,0,0,0,0,0,0,0,0,0,0,0,0,0,0,0,0,0,0,0,0,0,0,0,0,0,0,0,0,0,0,0,0,0,0,0,0,0,0,0,0,0,0,0,0,0,0,0,0,0,0,0,0,0,0,0,0,0,0});
stFinalDelayStdDevs=stFinalDelayStdDevs({0,0,0,0,0,0,0,0,0,0,0,0,0,0,0,0,0,0,0,0,0,0,0,0,0,0,0,0,0,0,0,0,0,0,0,0,0,0,0,0,0,0,0,0,0,0,0,0,0,0,0,0,0,0,0,0,0,0,0,0,0,0,0,0});

  
swAllocThresholds=swAllocThresholds({1,1,1,1,1,1,1,1,1,1,1,1,1,1,1,1,1,1,1,1,1,1,1,1,1,1,1,1,1,1,1,1,1,1,1,1,1,1,1,1,1,1,1,1,1,1,1,1,1,1,1,1,1,1,1,1,1,1,1,1,1,1,1,1});
swAllocThresholdStdDevs=swAllocThresholdStdDevs({0,0,0,0,0,0,0,0,0,0,0,0,0,0,0,0,0,0,0,0,0,0,0,0,0,0,0,0,0,0,0,0,0,0,0,0,0,0,0,0,0,0,0,0,0,0,0,0,0,0,0,0,0,0,0,0,0,0,0,0,0,0,0,0});
swAllocMetaStableThresholds=swAllocMetaStableThresholds({1,1,1,1,1,1,1,1,1,1,1,1,1,1,1,1,1,1,1,1,1,1,1,1,1,1,1,1,1,1,1,1,1,1,1,1,1,1,1,1,1,1,1,1,1,1,1,1,1,1,1,1,1,1,1,1,1,1,1,1,1,1,1,1});
swAllocMetaStableMaxPenalities=swAllocMetaStableMaxPenalities({0,0,0,0,0,0,0,0,0,0,0,0,0,0,0,0,0,0,0,0,0,0,0,0,0,0,0,0,0,0,0,0,0,0,0,0,0,0,0,0,0,0,0,0,0,0,0,0,0,0,0,0,0,0,0,0,0,0,0,0,0,0,0,0});

END Configuration File: interposer2
rid:0 add uselessoutput chan256
rid:1 add uselessoutput chan256
rid:2 add uselessoutput chan256
rid:3 add uselessoutput chan256
rid:4 add uselessoutput chan256
rid:5 add uselessoutput chan256
rid:6 add uselessoutput chan256
rid:7 add uselessoutput chan256
rid:8 add uselessoutput chan256
rid:9 add uselessoutput chan256
rid:10 add uselessoutput chan256
rid:11 add uselessoutput chan256
rid:12 add uselessoutput chan256
rid:13 add uselessoutput chan256
rid:14 add uselessoutput chan256
rid:15 add uselessoutput chan256
rid:16 add uselessoutput chan256
rid:17 add uselessoutput chan256
rid:18 add uselessoutput chan256
rid:19 add uselessoutput chan256
rid:20 add uselessoutput chan256
rid:21 add uselessoutput chan256
rid:22 add uselessoutput chan256
rid:23 add uselessoutput chan256
rid:24 add uselessoutput chan256
rid:25 add uselessoutput chan256
rid:26 add uselessoutput chan256
rid:27 add uselessoutput chan256
rid:28 add uselessoutput chan256
rid:29 add uselessoutput chan256
rid:30 add uselessoutput chan256
rid:31 add uselessoutput chan256
rid:32 add uselessoutput chan256
rid:33 add uselessoutput chan256
rid:34 add uselessoutput chan256
rid:35 add uselessoutput chan256
rid:36 add uselessoutput chan256
rid:37 add uselessoutput chan256
rid:38 add uselessoutput chan256
rid:39 add uselessoutput chan256
rid:40 add uselessoutput chan256
rid:41 add uselessoutput chan256
rid:42 add uselessoutput chan256
rid:43 add uselessoutput chan256
rid:44 add uselessoutput chan256
rid:45 add uselessoutput chan256
rid:46 add uselessoutput chan256
rid:47 add uselessoutput chan256
rid:48 add uselessoutput chan256
rid:49 add uselessoutput chan256
rid:50 add uselessoutput chan256
rid:51 add uselessoutput chan256
rid:52 add uselessoutput chan256
rid:53 add uselessoutput chan256
rid:54 add uselessoutput chan256
rid:55 add uselessoutput chan256
rid:56 add uselessoutput chan256
rid:57 add uselessoutput chan256
rid:58 add uselessoutput chan256
rid:59 add uselessoutput chan256
rid:60 add uselessoutput chan256
rid:61 add uselessoutput chan256
rid:62 add uselessoutput chan256
rid:63 add uselessoutput chan256

Tick: 0M
===== Time: 5000 =====
Class 0:
Minimum packet latency = 62
Average packet latency = 518.765
Maximum packet latency = 1921
Minimum network latency = 63
Average network latency = 504.214
Maximum network latency = 1878
Slowest packet = 407
Minimum flit latency = 63
Average flit latency = 504.214
Maximum flit latency = 1878
Slowest flit = 1039
Minimum fragmentation = 0
Average fragmentation = 0
Maximum fragmentation = 0
Minimum injected packet rate = 0.0032 (at node 17)
Average injected packet rate = 0.00571875
Maximum injected packet rate = 0.0092 (at node 24)
Minimum accepted packet rate = 0.003 (at node 23)
Average accepted packet rate = 0.00514063
Maximum accepted packet rate = 0.008 (at node 51)
Minimum injected flit rate = 0.0032 (at node 17)
Average injected flit rate = 0.00571875
Maximum injected flit rate = 0.0092 (at node 24)
Minimum accepted flit rate = 0.003 (at node 23)
Average accepted flit rate = 0.00514063
Maximum accepted flit rate = 0.008 (at node 51)
Total number of injected packets = 1830
Total number of injected flits = 1830
Average injected packet length = 1
Total number of accepted packets = 1645
Total number of accepted flits = 1645
Average accepted packet length = 1
Total in-flight flits = 190 (0 measured)
class 0 latency change    = 1
class 0 throughput change = 1
Warmed up ...Time used is 5000 cycles
===== Time: 10000 =====
Class 0:
Minimum packet latency = 62
Average packet latency = 557.737
Maximum packet latency = 2410
Minimum network latency = 63
Average network latency = 527.458
Maximum network latency = 1957
Slowest packet = 1921
Minimum flit latency = 63
Average flit latency = 547.947
Maximum flit latency = 1957
Slowest flit = 2536
Minimum fragmentation = 0
Average fragmentation = 0
Maximum fragmentation = 0
Minimum injected packet rate = 0.0034 (at node 42)
Average injected packet rate = 0.00592188
Maximum injected packet rate = 0.0086 (at node 14)
Minimum accepted packet rate = 0.0042 (at node 10)
Average accepted packet rate = 0.00579375
Maximum accepted packet rate = 0.0078 (at node 27)
Minimum injected flit rate = 0.0034 (at node 42)
Average injected flit rate = 0.00592188
Maximum injected flit rate = 0.0086 (at node 14)
Minimum accepted flit rate = 0.0042 (at node 10)
Average accepted flit rate = 0.00579375
Maximum accepted flit rate = 0.0078 (at node 27)
Total number of injected packets = 1895
Total number of injected flits = 1895
Average injected packet length = 1
Total number of accepted packets = 1854
Total number of accepted flits = 1854
Average accepted packet length = 1
Total in-flight flits = 230 (230 measured)
class 0 latency change    = 0.0698753
class 0 throughput change = 0.112729
===== Time: 15000 =====
Class 0:
Minimum packet latency = 62
Average packet latency = 627.963
Maximum packet latency = 3379
Minimum network latency = 63
Average network latency = 582.3
Maximum network latency = 3339
Slowest packet = 3420
Minimum flit latency = 63
Average flit latency = 589.732
Maximum flit latency = 3339
Slowest flit = 3420
Minimum fragmentation = 0
Average fragmentation = 0
Maximum fragmentation = 0
Minimum injected packet rate = 0.0044 (at node 26)
Average injected packet rate = 0.00587656
Maximum injected packet rate = 0.0075 (at node 5)
Minimum accepted packet rate = 0.004 (at node 52)
Average accepted packet rate = 0.00579531
Maximum accepted packet rate = 0.0076 (at node 47)
Minimum injected flit rate = 0.0044 (at node 26)
Average injected flit rate = 0.00587656
Maximum injected flit rate = 0.0075 (at node 5)
Minimum accepted flit rate = 0.004 (at node 52)
Average accepted flit rate = 0.00579531
Maximum accepted flit rate = 0.0076 (at node 47)
Total number of injected packets = 3761
Total number of injected flits = 3761
Average injected packet length = 1
Total number of accepted packets = 3709
Total number of accepted flits = 3709
Average accepted packet length = 1
Total in-flight flits = 250 (250 measured)
class 0 latency change    = 0.111831
class 0 throughput change = 0.000269614
===== Time: 20000 =====
Class 0:
Minimum packet latency = 62
Average packet latency = 693.955
Maximum packet latency = 5063
Minimum network latency = 63
Average network latency = 598.722
Maximum network latency = 3339
Slowest packet = 3420
Minimum flit latency = 63
Average flit latency = 603.095
Maximum flit latency = 3339
Slowest flit = 3420
Minimum fragmentation = 0
Average fragmentation = 0
Maximum fragmentation = 0
Minimum injected packet rate = 0.00413333 (at node 25)
Average injected packet rate = 0.00587917
Maximum injected packet rate = 0.00733333 (at node 8)
Minimum accepted packet rate = 0.00426667 (at node 10)
Average accepted packet rate = 0.00582292
Maximum accepted packet rate = 0.00726667 (at node 49)
Minimum injected flit rate = 0.00413333 (at node 25)
Average injected flit rate = 0.00587917
Maximum injected flit rate = 0.00733333 (at node 8)
Minimum accepted flit rate = 0.00426667 (at node 10)
Average accepted flit rate = 0.00582292
Maximum accepted flit rate = 0.00726667 (at node 49)
Total number of injected packets = 5644
Total number of injected flits = 5644
Average injected packet length = 1
Total number of accepted packets = 5590
Total number of accepted flits = 5590
Average accepted packet length = 1
Total in-flight flits = 248 (248 measured)
class 0 latency change    = 0.0950963
class 0 throughput change = 0.00474061
===== Time: 25000 =====
Class 0:
Minimum packet latency = 62
Average packet latency = 733.513
Maximum packet latency = 5063
Minimum network latency = 63
Average network latency = 613.271
Maximum network latency = 3339
Slowest packet = 3420
Minimum flit latency = 63
Average flit latency = 616.192
Maximum flit latency = 3339
Slowest flit = 3420
Minimum fragmentation = 0
Average fragmentation = 0
Maximum fragmentation = 0
Minimum injected packet rate = 0.0046 (at node 25)
Average injected packet rate = 0.00585156
Maximum injected packet rate = 0.0071 (at node 33)
Minimum accepted packet rate = 0.0041 (at node 52)
Average accepted packet rate = 0.0058
Maximum accepted packet rate = 0.00685 (at node 47)
Minimum injected flit rate = 0.0046 (at node 25)
Average injected flit rate = 0.00585156
Maximum injected flit rate = 0.0071 (at node 33)
Minimum accepted flit rate = 0.0041 (at node 52)
Average accepted flit rate = 0.0058
Maximum accepted flit rate = 0.00685 (at node 47)
Total number of injected packets = 7490
Total number of injected flits = 7490
Average injected packet length = 1
Total number of accepted packets = 7424
Total number of accepted flits = 7424
Average accepted packet length = 1
Total in-flight flits = 265 (265 measured)
class 0 latency change    = 0.0539285
class 0 throughput change = 0.00395115
===== Time: 30000 =====
Class 0:
Minimum packet latency = 62
Average packet latency = 788.883
Maximum packet latency = 5063
Minimum network latency = 63
Average network latency = 629.081
Maximum network latency = 3339
Slowest packet = 3420
Minimum flit latency = 63
Average flit latency = 631.08
Maximum flit latency = 3339
Slowest flit = 3420
Minimum fragmentation = 0
Average fragmentation = 0
Maximum fragmentation = 0
Minimum injected packet rate = 0.00496 (at node 31)
Average injected packet rate = 0.005875
Maximum injected packet rate = 0.007 (at node 33)
Minimum accepted packet rate = 0.00424 (at node 52)
Average accepted packet rate = 0.00584125
Maximum accepted packet rate = 0.007 (at node 14)
Minimum injected flit rate = 0.00496 (at node 31)
Average injected flit rate = 0.005875
Maximum injected flit rate = 0.007 (at node 33)
Minimum accepted flit rate = 0.00424 (at node 52)
Average accepted flit rate = 0.00584125
Maximum accepted flit rate = 0.007 (at node 14)
Total number of injected packets = 9400
Total number of injected flits = 9400
Average injected packet length = 1
Total number of accepted packets = 9346
Total number of accepted flits = 9346
Average accepted packet length = 1
Total in-flight flits = 256 (256 measured)
class 0 latency change    = 0.0701889
class 0 throughput change = 0.00706184
===== Time: 35000 =====
Class 0:
Minimum packet latency = 62
Average packet latency = 810.709
Maximum packet latency = 5063
Minimum network latency = 63
Average network latency = 629.417
Maximum network latency = 3339
Slowest packet = 3420
Minimum flit latency = 63
Average flit latency = 631.064
Maximum flit latency = 3339
Slowest flit = 3420
Minimum fragmentation = 0
Average fragmentation = 0
Maximum fragmentation = 0
Minimum injected packet rate = 0.00506667 (at node 31)
Average injected packet rate = 0.00590521
Maximum injected packet rate = 0.00706667 (at node 15)
Minimum accepted packet rate = 0.00433333 (at node 52)
Average accepted packet rate = 0.00588698
Maximum accepted packet rate = 0.00716667 (at node 24)
Minimum injected flit rate = 0.00506667 (at node 31)
Average injected flit rate = 0.00590521
Maximum injected flit rate = 0.00706667 (at node 15)
Minimum accepted flit rate = 0.00433333 (at node 52)
Average accepted flit rate = 0.00588698
Maximum accepted flit rate = 0.00716667 (at node 24)
Total number of injected packets = 11338
Total number of injected flits = 11338
Average injected packet length = 1
Total number of accepted packets = 11303
Total number of accepted flits = 11303
Average accepted packet length = 1
Total in-flight flits = 230 (230 measured)
class 0 latency change    = 0.0269216
class 0 throughput change = 0.00776785
===== Time: 40000 =====
Class 0:
Minimum packet latency = 62
Average packet latency = 803.65
Maximum packet latency = 5063
Minimum network latency = 63
Average network latency = 627.505
Maximum network latency = 3339
Slowest packet = 3420
Minimum flit latency = 63
Average flit latency = 628.939
Maximum flit latency = 3339
Slowest flit = 3420
Minimum fragmentation = 0
Average fragmentation = 0
Maximum fragmentation = 0
Minimum injected packet rate = 0.00502857 (at node 31)
Average injected packet rate = 0.0059375
Maximum injected packet rate = 0.00762857 (at node 15)
Minimum accepted packet rate = 0.00442857 (at node 52)
Average accepted packet rate = 0.00590804
Maximum accepted packet rate = 0.00702857 (at node 24)
Minimum injected flit rate = 0.00502857 (at node 31)
Average injected flit rate = 0.0059375
Maximum injected flit rate = 0.00762857 (at node 15)
Minimum accepted flit rate = 0.00442857 (at node 52)
Average accepted flit rate = 0.00590804
Maximum accepted flit rate = 0.00702857 (at node 24)
Total number of injected packets = 13300
Total number of injected flits = 13300
Average injected packet length = 1
Total number of accepted packets = 13234
Total number of accepted flits = 13234
Average accepted packet length = 1
Total in-flight flits = 259 (259 measured)
class 0 latency change    = 0.00878431
class 0 throughput change = 0.00356405
===== Time: 45000 =====
Class 0:
Minimum packet latency = 62
Average packet latency = 793.79
Maximum packet latency = 5063
Minimum network latency = 63
Average network latency = 629.345
Maximum network latency = 3339
Slowest packet = 3420
Minimum flit latency = 63
Average flit latency = 630.572
Maximum flit latency = 3339
Slowest flit = 3420
Minimum fragmentation = 0
Average fragmentation = 0
Maximum fragmentation = 0
Minimum injected packet rate = 0.005275 (at node 31)
Average injected packet rate = 0.0059418
Maximum injected packet rate = 0.0074 (at node 15)
Minimum accepted packet rate = 0.004675 (at node 52)
Average accepted packet rate = 0.00592734
Maximum accepted packet rate = 0.006775 (at node 11)
Minimum injected flit rate = 0.005275 (at node 31)
Average injected flit rate = 0.0059418
Maximum injected flit rate = 0.0074 (at node 15)
Minimum accepted flit rate = 0.004675 (at node 52)
Average accepted flit rate = 0.00592734
Maximum accepted flit rate = 0.006775 (at node 11)
Total number of injected packets = 15211
Total number of injected flits = 15211
Average injected packet length = 1
Total number of accepted packets = 15174
Total number of accepted flits = 15174
Average accepted packet length = 1
Total in-flight flits = 231 (231 measured)
class 0 latency change    = 0.0124215
class 0 throughput change = 0.00325745
===== Time: 50000 =====
Class 0:
Minimum packet latency = 62
Average packet latency = 798.662
Maximum packet latency = 5063
Minimum network latency = 63
Average network latency = 635.526
Maximum network latency = 3629
Slowest packet = 3420
Minimum flit latency = 63
Average flit latency = 636.549
Maximum flit latency = 3629
Slowest flit = 16606
Minimum fragmentation = 0
Average fragmentation = 0
Maximum fragmentation = 0
Minimum injected packet rate = 0.00524444 (at node 31)
Average injected packet rate = 0.00594965
Maximum injected packet rate = 0.00704444 (at node 15)
Minimum accepted packet rate = 0.00471111 (at node 52)
Average accepted packet rate = 0.00592535
Maximum accepted packet rate = 0.00671111 (at node 38)
Minimum injected flit rate = 0.00524444 (at node 31)
Average injected flit rate = 0.00594965
Maximum injected flit rate = 0.00704444 (at node 15)
Minimum accepted flit rate = 0.00471111 (at node 52)
Average accepted flit rate = 0.00592535
Maximum accepted flit rate = 0.00671111 (at node 38)
Total number of injected packets = 17135
Total number of injected flits = 17135
Average injected packet length = 1
Total number of accepted packets = 17065
Total number of accepted flits = 17065
Average accepted packet length = 1
Total in-flight flits = 270 (270 measured)
class 0 latency change    = 0.00610043
class 0 throughput change = 0.000336947
===== Time: 55000 =====
Class 0:
Minimum packet latency = 62
Average packet latency = 812.258
Maximum packet latency = 5456
Minimum network latency = 63
Average network latency = 639.766
Maximum network latency = 4259
Slowest packet = 3420
Minimum flit latency = 63
Average flit latency = 640.645
Maximum flit latency = 4259
Slowest flit = 18986
Minimum fragmentation = 0
Average fragmentation = 0
Maximum fragmentation = 0
Minimum injected packet rate = 0.00514 (at node 9)
Average injected packet rate = 0.00594125
Maximum injected packet rate = 0.00676 (at node 15)
Minimum accepted packet rate = 0.00482 (at node 52)
Average accepted packet rate = 0.00591844
Maximum accepted packet rate = 0.00672 (at node 38)
Minimum injected flit rate = 0.00514 (at node 9)
Average injected flit rate = 0.00594125
Maximum injected flit rate = 0.00676 (at node 15)
Minimum accepted flit rate = 0.00482 (at node 52)
Average accepted flit rate = 0.00591844
Maximum accepted flit rate = 0.00672 (at node 38)
Total number of injected packets = 19012
Total number of injected flits = 19012
Average injected packet length = 1
Total number of accepted packets = 18939
Total number of accepted flits = 18939
Average accepted packet length = 1
Total in-flight flits = 276 (276 measured)
class 0 latency change    = 0.0167386
class 0 throughput change = 0.00116749
Draining remaining packets ...
Class 0:
Remaining flits: 20327 20332 20480 20685 20708 20717 20768 20791 20797 20833 (10 flits)
Measured flits: 20327 20332 20480 20685 20708 20717 20768 20791 20797 20833 (10 flits)
Time taken is 56231 cycles
====== Traffic class 0 ======

Total number of flits generated = 20860, changed lanes = 0
Overall minimum packet latency = 62 (1 samples)
Overall average packet latency = 821.949 (1 samples)
Overall maximum packet latency = 5911 (1 samples)
Overall minimum network latency = 63 (1 samples)
Overall average network latency = 642.55 (1 samples)
Overall maximum network latency = 4259 (1 samples)
Overall minimum flit latency = 63 (1 samples)
Overall average flit latency = 643.389 (1 samples)
Overall maximum flit latency = 4259 (1 samples)
Overall minimum fragmentation = 0 (1 samples)
Overall average fragmentation = 0 (1 samples)
Overall maximum fragmentation = 0 (1 samples)
Overall minimum injected packet rate = 0.00514 (1 samples)
Overall average injected packet rate = 0.00594125 (1 samples)
Overall maximum injected packet rate = 0.00676 (1 samples)
Overall minimum accepted packet rate = 0.00482 (1 samples)
Overall average accepted packet rate = 0.00591844 (1 samples)
Overall maximum accepted packet rate = 0.00672 (1 samples)
Overall minimum injected flit rate = 0.00514 (1 samples)
Overall average injected flit rate = 0.00594125 (1 samples)
Overall maximum injected flit rate = 0.00676 (1 samples)
Overall minimum accepted flit rate = 0.00482 (1 samples)
Overall average accepted flit rate = 0.00591844 (1 samples)
Overall maximum accepted flit rate = 0.00672 (1 samples)
Overall average injected packet size = 1 (1 samples)
Overall average accepted packet size = 1 (1 samples)
Overall average hops = 6.24647 (1 samples)
Overall throughput of the network (flits/cycle) = 0.4172
Overall throughput of the network (packets/cycle) = 0.4172
CSV Result Header , avgFLat,avgFInjRate
CSV Result ,643.389,0.00594125

Power Report Header, Frequency, Time, StaticIQ, DynamicIQ, StaticVC, DynamicVC, StaticSA, DynamicSA, StaticST, DynamicST, StaticLink, DynamicLink, NoFlits, ePerFlit
Power Report,3.9e+08,56231,0.131875,0.0116917,0.00749762,0.000344524,0.00224928,0.000311615,0.477597,0.00392284,0.0905466,0.00942775,20860,5.08582e-09

*****************************************
Total run time 10.5453
generate:0x7ffda75151f0
delete:0x7ffda75151f0
L = 2 K = 8.1 M = 2 N = 1
-----------------------------------------
- OCN Power Summary
- Completion Time:         56231
- Flit Widths:            64
- Channel Wire Power:      1.47343
- Channel Clock Power:     1.46183
- Channel Retiming Power:  0.0183066
- Channel Leakage Power:   0.551082
- Input Read Power:        0.0338524
- Input Write Power:       0.0338524
- Input Leakage Power:     0.113246
- Switch Power:            0.0734034
- Switch Control Power:    0.038007
- Switch Leakage Power:    0.771052
- Output DFF Power:        0.00788993
- Output Clk Power:        0.727126
- Output Control Power:    0.00407186
- Total Power:             5.30715
-----------------------------------------

-----------------------------------------
- OCN Area Summary
- Channel Area:  0.109536
- Switch  Area:  0.241592
- Input  Area:   0.120796
- Output  Area:  0.0201327
- Total Area:    0.492056
-----------------------------------------
CSV Power Result Header , Completion Time, Channel Wire, Channel Clock, Channel Retiming, Channel Leakage, Input Read, Input Write, Input Leakage, Switch Power, Switch Control, Switch Leakage, Output DFF, Output Clk, Output Control
CSV Power Result , 56231, 1.47343, 1.46183, 0.0183066, 0.551082, 0.0338524, 0.0338524, 0.113246, 0.0734034, 0.038007, 0.771052, 0.00788993, 0.727126, 0.00407186
delete:0x7ffda75151f0
delete:0x7ffda75151f0
