generate:0x7ffd4089f200
generate:0x7ffd4089f370
BEGIN Configuration File: interposer2
//topology
topology = mesh;
k = 8;
n = 2;
type = interposer;
// Routing
routing_function = dor;

// Flow control
num_vcs     = 2;
vc_buf_size = 8;
wait_for_tail_credit = 1;
hold_switch_for_packet = 1;

// Router architecture
vc_allocator = islip;
sw_allocator = islip;
alloc_iters  = 1;

credit_delay   = 0;
routing_delay  = 1;
vc_alloc_delay = 1;
sw_alloc_delay = 1;
st_final_delay = 1;

input_speedup     = 1;
output_speedup    = 1;
internal_speedup  = 1.0;
vc_busy_when_full = 0;


//granulaity
latency_thres=20000.0;
deadlock_warn_timeout=20000;
traceStretch=3;

//gating
doGating=0;
sleepThreshold=40;
breakEvenThreshold=80;



//Syn Traffic
//sim_type=latency;
sim_type=throughput;
traffic=uniform;
packet_size = 1;
sample_period=5000;
warmup_periods=1;
max_samples=11;
injection_rate=0.010;

creditDelays=creditDelays({0,0,0,0,0,0,0,0,0,0,0,0,0,0,0,0,0,0,0,0,0,0,0,0,0,0,0,0,0,0,0,0,0,0,0,0,0,0,0,0,0,0,0,0,0,0,0,0,0,0,0,0,0,0,0,0,0,0,0,0,0,0,0,0}});
routingDelays=routingDelays({15,15,15,15,15,15,15,15,15,15,15,15,15,15,15,15,15,15,15,15,15,15,15,15,15,15,15,15,15,15,15,15,15,15,15,15,15,15,15,15,15,15,15,15,15,15,15,15,15,15,15,15,15,15,15,15,15,15,15,15,15,15,15,15});
vcAllocDelays=vcAllocDelays({15,15,15,15,15,15,15,15,15,15,15,15,15,15,15,15,15,15,15,15,15,15,15,15,15,15,15,15,15,15,15,15,15,15,15,15,15,15,15,15,15,15,15,15,15,15,15,15,15,15,15,15,15,15,15,15,15,15,15,15,15,15,15,15});
swAllocDelays=swAllocDelays({15,15,15,15,15,15,15,15,15,15,15,15,15,15,15,15,15,15,15,15,15,15,15,15,15,15,15,15,15,15,15,15,15,15,15,15,15,15,15,15,15,15,15,15,15,15,15,15,15,15,15,15,15,15,15,15,15,15,15,15,15,15,15,15});
stFinalDelays=stFinalDelays({15,15,15,15,15,15,15,15,15,15,15,15,15,15,15,15,15,15,15,15,15,15,15,15,15,15,15,15,15,15,15,15,15,15,15,15,15,15,15,15,15,15,15,15,15,15,15,15,15,15,15,15,15,15,15,15,15,15,15,15,15,15,15,15});

isAsync=isAsync({1,1,1,1,1,1,1,1,1,1,1,1,1,1,1,1,1,1,1,1,1,1,1,1,1,1,1,1,1,1,1,1,1,1,1,1,1,1,1,1,1,1,1,1,1,1,1,1,1,1,1,1,1,1,1,1,1,1,1,1,1,1,1,1});
isMetaUnstable=isMetaUnstable({0,0,0,0,0,0,0,0,0,0,0,0,0,0,0,0,0,0,0,0,0,0,0,0,0,0,0,0,0,0,0,0,0,0,0,0,0,0,0,0,0,0,0,0,0,0,0,0,0,0,0,0,0,0,0,0,0,0,0,0,0,0,0,0});

creditDelayStdDevs=creditDelayStdDevs({0,0,0,0,0,0,0,0,0,0,0,0,0,0,0,0,0,0,0,0,0,0,0,0,0,0,0,0,0,0,0,0,0,0,0,0,0,0,0,0,0,0,0,0,0,0,0,0,0,0,0,0,0,0,0,0,0,0,0,0,0,0,0,0});
routingDelayStdDevs=routingDelayStdDevs({0,0,0,0,0,0,0,0,0,0,0,0,0,0,0,0,0,0,0,0,0,0,0,0,0,0,0,0,0,0,0,0,0,0,0,0,0,0,0,0,0,0,0,0,0,0,0,0,0,0,0,0,0,0,0,0,0,0,0,0,0,0,0,0});
vcAllocDelayStdDevs=vcAllocDelayStdDevs({0,0,0,0,0,0,0,0,0,0,0,0,0,0,0,0,0,0,0,0,0,0,0,0,0,0,0,0,0,0,0,0,0,0,0,0,0,0,0,0,0,0,0,0,0,0,0,0,0,0,0,0,0,0,0,0,0,0,0,0,0,0,0,0});
swAllocDelayStdDevs=swAllocDelayStdDevs({0,0,0,0,0,0,0,0,0,0,0,0,0,0,0,0,0,0,0,0,0,0,0,0,0,0,0,0,0,0,0,0,0,0,0,0,0,0,0,0,0,0,0,0,0,0,0,0,0,0,0,0,0,0,0,0,0,0,0,0,0,0,0,0});
stFinalDelayStdDevs=stFinalDelayStdDevs({0,0,0,0,0,0,0,0,0,0,0,0,0,0,0,0,0,0,0,0,0,0,0,0,0,0,0,0,0,0,0,0,0,0,0,0,0,0,0,0,0,0,0,0,0,0,0,0,0,0,0,0,0,0,0,0,0,0,0,0,0,0,0,0});

  
swAllocThresholds=swAllocThresholds({1,1,1,1,1,1,1,1,1,1,1,1,1,1,1,1,1,1,1,1,1,1,1,1,1,1,1,1,1,1,1,1,1,1,1,1,1,1,1,1,1,1,1,1,1,1,1,1,1,1,1,1,1,1,1,1,1,1,1,1,1,1,1,1});
swAllocThresholdStdDevs=swAllocThresholdStdDevs({0,0,0,0,0,0,0,0,0,0,0,0,0,0,0,0,0,0,0,0,0,0,0,0,0,0,0,0,0,0,0,0,0,0,0,0,0,0,0,0,0,0,0,0,0,0,0,0,0,0,0,0,0,0,0,0,0,0,0,0,0,0,0,0});
swAllocMetaStableThresholds=swAllocMetaStableThresholds({1,1,1,1,1,1,1,1,1,1,1,1,1,1,1,1,1,1,1,1,1,1,1,1,1,1,1,1,1,1,1,1,1,1,1,1,1,1,1,1,1,1,1,1,1,1,1,1,1,1,1,1,1,1,1,1,1,1,1,1,1,1,1,1});
swAllocMetaStableMaxPenalities=swAllocMetaStableMaxPenalities({0,0,0,0,0,0,0,0,0,0,0,0,0,0,0,0,0,0,0,0,0,0,0,0,0,0,0,0,0,0,0,0,0,0,0,0,0,0,0,0,0,0,0,0,0,0,0,0,0,0,0,0,0,0,0,0,0,0,0,0,0,0,0,0});

END Configuration File: interposer2
rid:0 add uselessoutput chan256
rid:1 add uselessoutput chan256
rid:2 add uselessoutput chan256
rid:3 add uselessoutput chan256
rid:4 add uselessoutput chan256
rid:5 add uselessoutput chan256
rid:6 add uselessoutput chan256
rid:7 add uselessoutput chan256
rid:8 add uselessoutput chan256
rid:9 add uselessoutput chan256
rid:10 add uselessoutput chan256
rid:11 add uselessoutput chan256
rid:12 add uselessoutput chan256
rid:13 add uselessoutput chan256
rid:14 add uselessoutput chan256
rid:15 add uselessoutput chan256
rid:16 add uselessoutput chan256
rid:17 add uselessoutput chan256
rid:18 add uselessoutput chan256
rid:19 add uselessoutput chan256
rid:20 add uselessoutput chan256
rid:21 add uselessoutput chan256
rid:22 add uselessoutput chan256
rid:23 add uselessoutput chan256
rid:24 add uselessoutput chan256
rid:25 add uselessoutput chan256
rid:26 add uselessoutput chan256
rid:27 add uselessoutput chan256
rid:28 add uselessoutput chan256
rid:29 add uselessoutput chan256
rid:30 add uselessoutput chan256
rid:31 add uselessoutput chan256
rid:32 add uselessoutput chan256
rid:33 add uselessoutput chan256
rid:34 add uselessoutput chan256
rid:35 add uselessoutput chan256
rid:36 add uselessoutput chan256
rid:37 add uselessoutput chan256
rid:38 add uselessoutput chan256
rid:39 add uselessoutput chan256
rid:40 add uselessoutput chan256
rid:41 add uselessoutput chan256
rid:42 add uselessoutput chan256
rid:43 add uselessoutput chan256
rid:44 add uselessoutput chan256
rid:45 add uselessoutput chan256
rid:46 add uselessoutput chan256
rid:47 add uselessoutput chan256
rid:48 add uselessoutput chan256
rid:49 add uselessoutput chan256
rid:50 add uselessoutput chan256
rid:51 add uselessoutput chan256
rid:52 add uselessoutput chan256
rid:53 add uselessoutput chan256
rid:54 add uselessoutput chan256
rid:55 add uselessoutput chan256
rid:56 add uselessoutput chan256
rid:57 add uselessoutput chan256
rid:58 add uselessoutput chan256
rid:59 add uselessoutput chan256
rid:60 add uselessoutput chan256
rid:61 add uselessoutput chan256
rid:62 add uselessoutput chan256
rid:63 add uselessoutput chan256

Tick: 0M
===== Time: 5000 =====
Class 0:
Minimum packet latency = 62
Average packet latency = 1003.06
Maximum packet latency = 3723
Minimum network latency = 63
Average network latency = 744.628
Maximum network latency = 3346
Slowest packet = 508
Minimum flit latency = 63
Average flit latency = 744.628
Maximum flit latency = 3346
Slowest flit = 737
Minimum fragmentation = 0
Average fragmentation = 0
Maximum fragmentation = 0
Minimum injected packet rate = 0.003 (at node 46)
Average injected packet rate = 0.0068875
Maximum injected packet rate = 0.0126 (at node 20)
Minimum accepted packet rate = 0.004 (at node 22)
Average accepted packet rate = 0.00575
Maximum accepted packet rate = 0.0082 (at node 12)
Minimum injected flit rate = 0.003 (at node 46)
Average injected flit rate = 0.0068875
Maximum injected flit rate = 0.0126 (at node 20)
Minimum accepted flit rate = 0.004 (at node 22)
Average accepted flit rate = 0.00575
Maximum accepted flit rate = 0.0082 (at node 12)
Total number of injected packets = 2204
Total number of injected flits = 2204
Average injected packet length = 1
Total number of accepted packets = 1840
Total number of accepted flits = 1840
Average accepted packet length = 1
Total in-flight flits = 421 (0 measured)
class 0 latency change    = 1
class 0 throughput change = 1
Warmed up ...Time used is 5000 cycles
===== Time: 10000 =====
Class 0:
Minimum packet latency = 62
Average packet latency = 2353.3
Maximum packet latency = 7151
Minimum network latency = 63
Average network latency = 820.737
Maximum network latency = 4036
Slowest packet = 2283
Minimum flit latency = 63
Average flit latency = 942.993
Maximum flit latency = 4339
Slowest flit = 1992
Minimum fragmentation = 0
Average fragmentation = 0
Maximum fragmentation = 0
Minimum injected packet rate = 0.002 (at node 8)
Average injected packet rate = 0.00605
Maximum injected packet rate = 0.0116 (at node 35)
Minimum accepted packet rate = 0.0036 (at node 59)
Average accepted packet rate = 0.00603125
Maximum accepted packet rate = 0.0092 (at node 47)
Minimum injected flit rate = 0.002 (at node 8)
Average injected flit rate = 0.00605
Maximum injected flit rate = 0.0116 (at node 35)
Minimum accepted flit rate = 0.0036 (at node 59)
Average accepted flit rate = 0.00603125
Maximum accepted flit rate = 0.0092 (at node 47)
Total number of injected packets = 1936
Total number of injected flits = 1936
Average injected packet length = 1
Total number of accepted packets = 1930
Total number of accepted flits = 1930
Average accepted packet length = 1
Total in-flight flits = 426 (425 measured)
class 0 latency change    = 0.573767
class 0 throughput change = 0.0466321
===== Time: 15000 =====
Class 0:
Minimum packet latency = 62
Average packet latency = 3094.2
Maximum packet latency = 11280
Minimum network latency = 63
Average network latency = 887.829
Maximum network latency = 5011
Slowest packet = 2283
Minimum flit latency = 63
Average flit latency = 942.626
Maximum flit latency = 5781
Slowest flit = 1774
Minimum fragmentation = 0
Average fragmentation = 0
Maximum fragmentation = 0
Minimum injected packet rate = 0.0022 (at node 9)
Average injected packet rate = 0.00607031
Maximum injected packet rate = 0.0106 (at node 43)
Minimum accepted packet rate = 0.0041 (at node 52)
Average accepted packet rate = 0.00606406
Maximum accepted packet rate = 0.0077 (at node 47)
Minimum injected flit rate = 0.0022 (at node 9)
Average injected flit rate = 0.00607031
Maximum injected flit rate = 0.0106 (at node 43)
Minimum accepted flit rate = 0.0041 (at node 52)
Average accepted flit rate = 0.00606406
Maximum accepted flit rate = 0.0077 (at node 47)
Total number of injected packets = 3885
Total number of injected flits = 3885
Average injected packet length = 1
Total number of accepted packets = 3881
Total number of accepted flits = 3881
Average accepted packet length = 1
Total in-flight flits = 423 (423 measured)
class 0 latency change    = 0.239448
class 0 throughput change = 0.00541098
===== Time: 20000 =====
Class 0:
Minimum packet latency = 62
Average packet latency = 3843.21
Maximum packet latency = 15406
Minimum network latency = 63
Average network latency = 902.585
Maximum network latency = 5011
Slowest packet = 2283
Minimum flit latency = 63
Average flit latency = 938.304
Maximum flit latency = 5781
Slowest flit = 1774
Minimum fragmentation = 0
Average fragmentation = 0
Maximum fragmentation = 0
Minimum injected packet rate = 0.0022 (at node 54)
Average injected packet rate = 0.00601354
Maximum injected packet rate = 0.0103333 (at node 44)
Minimum accepted packet rate = 0.0044 (at node 10)
Average accepted packet rate = 0.00602083
Maximum accepted packet rate = 0.0078 (at node 49)
Minimum injected flit rate = 0.0022 (at node 54)
Average injected flit rate = 0.00601354
Maximum injected flit rate = 0.0103333 (at node 44)
Minimum accepted flit rate = 0.0044 (at node 10)
Average accepted flit rate = 0.00602083
Maximum accepted flit rate = 0.0078 (at node 49)
Total number of injected packets = 5773
Total number of injected flits = 5773
Average injected packet length = 1
Total number of accepted packets = 5780
Total number of accepted flits = 5780
Average accepted packet length = 1
Total in-flight flits = 415 (415 measured)
class 0 latency change    = 0.194891
class 0 throughput change = 0.00717993
===== Time: 25000 =====
Class 0:
Minimum packet latency = 62
Average packet latency = 4604.11
Maximum packet latency = 18574
Minimum network latency = 63
Average network latency = 928.218
Maximum network latency = 8236
Slowest packet = 2283
Minimum flit latency = 63
Average flit latency = 953.789
Maximum flit latency = 8236
Slowest flit = 5554
Minimum fragmentation = 0
Average fragmentation = 0
Maximum fragmentation = 0
Minimum injected packet rate = 0.00215 (at node 55)
Average injected packet rate = 0.00598516
Maximum injected packet rate = 0.0102 (at node 35)
Minimum accepted packet rate = 0.00415 (at node 52)
Average accepted packet rate = 0.00597812
Maximum accepted packet rate = 0.0073 (at node 39)
Minimum injected flit rate = 0.00215 (at node 55)
Average injected flit rate = 0.00598516
Maximum injected flit rate = 0.0102 (at node 35)
Minimum accepted flit rate = 0.00415 (at node 52)
Average accepted flit rate = 0.00597812
Maximum accepted flit rate = 0.0073 (at node 39)
Total number of injected packets = 7661
Total number of injected flits = 7661
Average injected packet length = 1
Total number of accepted packets = 7652
Total number of accepted flits = 7652
Average accepted packet length = 1
Total in-flight flits = 433 (433 measured)
class 0 latency change    = 0.165265
class 0 throughput change = 0.0071441
===== Time: 30000 =====
Class 0:
Minimum packet latency = 62
Average packet latency = 5320.78
Maximum packet latency = 23051
Minimum network latency = 63
Average network latency = 938.624
Maximum network latency = 8236
Slowest packet = 2283
Minimum flit latency = 63
Average flit latency = 958.646
Maximum flit latency = 8236
Slowest flit = 5554
Minimum fragmentation = 0
Average fragmentation = 0
Maximum fragmentation = 0
Minimum injected packet rate = 0.00204 (at node 54)
Average injected packet rate = 0.0059675
Maximum injected packet rate = 0.01016 (at node 35)
Minimum accepted packet rate = 0.0042 (at node 52)
Average accepted packet rate = 0.00597125
Maximum accepted packet rate = 0.0072 (at node 14)
Minimum injected flit rate = 0.00204 (at node 54)
Average injected flit rate = 0.0059675
Maximum injected flit rate = 0.01016 (at node 35)
Minimum accepted flit rate = 0.0042 (at node 52)
Average accepted flit rate = 0.00597125
Maximum accepted flit rate = 0.0072 (at node 14)
Total number of injected packets = 9548
Total number of injected flits = 9548
Average injected packet length = 1
Total number of accepted packets = 9554
Total number of accepted flits = 9554
Average accepted packet length = 1
Total in-flight flits = 417 (417 measured)
class 0 latency change    = 0.134693
class 0 throughput change = 0.00115135
===== Time: 35000 =====
Class 0:
Minimum packet latency = 62
Average packet latency = 6084.71
Maximum packet latency = 27737
Minimum network latency = 63
Average network latency = 938.301
Maximum network latency = 8236
Slowest packet = 2283
Minimum flit latency = 63
Average flit latency = 954.962
Maximum flit latency = 8236
Slowest flit = 5554
Minimum fragmentation = 0
Average fragmentation = 0
Maximum fragmentation = 0
Minimum injected packet rate = 0.00186667 (at node 55)
Average injected packet rate = 0.00598698
Maximum injected packet rate = 0.0101 (at node 35)
Minimum accepted packet rate = 0.00426667 (at node 52)
Average accepted packet rate = 0.00598385
Maximum accepted packet rate = 0.00726667 (at node 24)
Minimum injected flit rate = 0.00186667 (at node 55)
Average injected flit rate = 0.00598698
Maximum injected flit rate = 0.0101 (at node 35)
Minimum accepted flit rate = 0.00426667 (at node 52)
Average accepted flit rate = 0.00598385
Maximum accepted flit rate = 0.00726667 (at node 24)
Total number of injected packets = 11495
Total number of injected flits = 11495
Average injected packet length = 1
Total number of accepted packets = 11489
Total number of accepted flits = 11489
Average accepted packet length = 1
Total in-flight flits = 430 (430 measured)
class 0 latency change    = 0.12555
class 0 throughput change = 0.00210636
===== Time: 40000 =====
Class 0:
Minimum packet latency = 62
Average packet latency = 6808.62
Maximum packet latency = 31820
Minimum network latency = 63
Average network latency = 938.085
Maximum network latency = 8236
Slowest packet = 2283
Minimum flit latency = 63
Average flit latency = 952.344
Maximum flit latency = 8236
Slowest flit = 5554
Minimum fragmentation = 0
Average fragmentation = 0
Maximum fragmentation = 0
Minimum injected packet rate = 0.00194286 (at node 54)
Average injected packet rate = 0.0059942
Maximum injected packet rate = 0.0101429 (at node 35)
Minimum accepted packet rate = 0.00451429 (at node 52)
Average accepted packet rate = 0.00599598
Maximum accepted packet rate = 0.00705714 (at node 24)
Minimum injected flit rate = 0.00194286 (at node 54)
Average injected flit rate = 0.0059942
Maximum injected flit rate = 0.0101429 (at node 35)
Minimum accepted flit rate = 0.00451429 (at node 52)
Average accepted flit rate = 0.00599598
Maximum accepted flit rate = 0.00705714 (at node 24)
Total number of injected packets = 13427
Total number of injected flits = 13427
Average injected packet length = 1
Total number of accepted packets = 13431
Total number of accepted flits = 13431
Average accepted packet length = 1
Total in-flight flits = 421 (421 measured)
class 0 latency change    = 0.106322
class 0 throughput change = 0.00202268
===== Time: 45000 =====
Class 0:
Minimum packet latency = 62
Average packet latency = 7425.69
Maximum packet latency = 36157
Minimum network latency = 63
Average network latency = 939.589
Maximum network latency = 8236
Slowest packet = 2283
Minimum flit latency = 63
Average flit latency = 952.056
Maximum flit latency = 8236
Slowest flit = 5554
Minimum fragmentation = 0
Average fragmentation = 0
Maximum fragmentation = 0
Minimum injected packet rate = 0.00185 (at node 54)
Average injected packet rate = 0.00598398
Maximum injected packet rate = 0.009975 (at node 28)
Minimum accepted packet rate = 0.004675 (at node 52)
Average accepted packet rate = 0.00598086
Maximum accepted packet rate = 0.0068 (at node 11)
Minimum injected flit rate = 0.00185 (at node 54)
Average injected flit rate = 0.00598398
Maximum injected flit rate = 0.009975 (at node 28)
Minimum accepted flit rate = 0.004675 (at node 52)
Average accepted flit rate = 0.00598086
Maximum accepted flit rate = 0.0068 (at node 11)
Total number of injected packets = 15319
Total number of injected flits = 15319
Average injected packet length = 1
Total number of accepted packets = 15311
Total number of accepted flits = 15311
Average accepted packet length = 1
Total in-flight flits = 433 (433 measured)
class 0 latency change    = 0.0830993
class 0 throughput change = 0.00252853
===== Time: 50000 =====
Class 0:
Minimum packet latency = 62
Average packet latency = 8176.04
Maximum packet latency = 40077
Minimum network latency = 63
Average network latency = 940.175
Maximum network latency = 8236
Slowest packet = 2283
Minimum flit latency = 63
Average flit latency = 951.217
Maximum flit latency = 8236
Slowest flit = 5554
Minimum fragmentation = 0
Average fragmentation = 0
Maximum fragmentation = 0
Minimum injected packet rate = 0.00195556 (at node 54)
Average injected packet rate = 0.00599931
Maximum injected packet rate = 0.0100667 (at node 51)
Minimum accepted packet rate = 0.00488889 (at node 52)
Average accepted packet rate = 0.00599444
Maximum accepted packet rate = 0.00688889 (at node 38)
Minimum injected flit rate = 0.00195556 (at node 54)
Average injected flit rate = 0.00599931
Maximum injected flit rate = 0.0100667 (at node 51)
Minimum accepted flit rate = 0.00488889 (at node 52)
Average accepted flit rate = 0.00599444
Maximum accepted flit rate = 0.00688889 (at node 38)
Total number of injected packets = 17278
Total number of injected flits = 17278
Average injected packet length = 1
Total number of accepted packets = 17264
Total number of accepted flits = 17264
Average accepted packet length = 1
Total in-flight flits = 434 (434 measured)
class 0 latency change    = 0.0917739
class 0 throughput change = 0.00226628
===== Time: 55000 =====
Class 0:
Minimum packet latency = 62
Average packet latency = 8862.54
Maximum packet latency = 43366
Minimum network latency = 63
Average network latency = 942.417
Maximum network latency = 8236
Slowest packet = 2283
Minimum flit latency = 63
Average flit latency = 952.305
Maximum flit latency = 8236
Slowest flit = 5554
Minimum fragmentation = 0
Average fragmentation = 0
Maximum fragmentation = 0
Minimum injected packet rate = 0.00204 (at node 54)
Average injected packet rate = 0.00599625
Maximum injected packet rate = 0.01026 (at node 28)
Minimum accepted packet rate = 0.005 (at node 52)
Average accepted packet rate = 0.005995
Maximum accepted packet rate = 0.0068 (at node 38)
Minimum injected flit rate = 0.00204 (at node 54)
Average injected flit rate = 0.00599625
Maximum injected flit rate = 0.01026 (at node 28)
Minimum accepted flit rate = 0.005 (at node 52)
Average accepted flit rate = 0.005995
Maximum accepted flit rate = 0.0068 (at node 38)
Total number of injected packets = 19188
Total number of injected flits = 19188
Average injected packet length = 1
Total number of accepted packets = 19184
Total number of accepted flits = 19184
Average accepted packet length = 1
Total in-flight flits = 428 (428 measured)
class 0 latency change    = 0.0774609
class 0 throughput change = 9.26698e-05
Draining remaining packets ...
Class 0:
Remaining flits: 20610 20664 20706 20778 20786 20798 20814 20833 20852 20882 [...] (79 flits)
Measured flits: 20610 20664 20706 20778 20786 20798 20814 20833 20852 20882 [...] (79 flits)
Time taken is 56762 cycles
====== Traffic class 0 ======

Total number of flits generated = 21452, changed lanes = 0
Overall minimum packet latency = 62 (1 samples)
Overall average packet latency = 9163.08 (1 samples)
Overall maximum packet latency = 44233 (1 samples)
Overall minimum network latency = 63 (1 samples)
Overall average network latency = 949.183 (1 samples)
Overall maximum network latency = 8236 (1 samples)
Overall minimum flit latency = 63 (1 samples)
Overall average flit latency = 958.71 (1 samples)
Overall maximum flit latency = 8236 (1 samples)
Overall minimum fragmentation = 0 (1 samples)
Overall average fragmentation = 0 (1 samples)
Overall maximum fragmentation = 0 (1 samples)
Overall minimum injected packet rate = 0.00204 (1 samples)
Overall average injected packet rate = 0.00599625 (1 samples)
Overall maximum injected packet rate = 0.01026 (1 samples)
Overall minimum accepted packet rate = 0.005 (1 samples)
Overall average accepted packet rate = 0.005995 (1 samples)
Overall maximum accepted packet rate = 0.0068 (1 samples)
Overall minimum injected flit rate = 0.00204 (1 samples)
Overall average injected flit rate = 0.00599625 (1 samples)
Overall maximum injected flit rate = 0.01026 (1 samples)
Overall minimum accepted flit rate = 0.005 (1 samples)
Overall average accepted flit rate = 0.005995 (1 samples)
Overall maximum accepted flit rate = 0.0068 (1 samples)
Overall average injected packet size = 1 (1 samples)
Overall average accepted packet size = 1 (1 samples)
Overall average hops = 6.03012 (1 samples)
Overall throughput of the network (flits/cycle) = 0.42904
Overall throughput of the network (packets/cycle) = 0.42904
CSV Result Header , avgFLat,avgFInjRate
CSV Result ,958.71,0.00599625

Power Report Header, Frequency, Time, StaticIQ, DynamicIQ, StaticVC, DynamicVC, StaticSA, DynamicSA, StaticST, DynamicST, StaticLink, DynamicLink, NoFlits, ePerFlit
Power Report,3.9e+08,56762,0.131875,0.0115031,0.00749762,0.000338678,0.00224928,0.00030869,0.477597,0.00388343,0.0905466,0.00927568,21452,4.98949e-09

*****************************************
Total run time 11.1637
generate:0x7ffd4089ec70
delete:0x7ffd4089ec70
L = 2 K = 8.1 M = 2 N = 1
-----------------------------------------
- OCN Power Summary
- Completion Time:         56762
- Flit Widths:            64
- Channel Wire Power:      1.45676
- Channel Clock Power:     1.46183
- Channel Retiming Power:  0.0180995
- Channel Leakage Power:   0.551082
- Input Read Power:        0.0333063
- Input Write Power:       0.0333063
- Input Leakage Power:     0.113246
- Switch Power:            0.0724734
- Switch Control Power:    0.037394
- Switch Leakage Power:    0.771052
- Output DFF Power:        0.00776266
- Output Clk Power:        0.727126
- Output Control Power:    0.00400617
- Total Power:             5.28744
-----------------------------------------

-----------------------------------------
- OCN Area Summary
- Channel Area:  0.109536
- Switch  Area:  0.241592
- Input  Area:   0.120796
- Output  Area:  0.0201327
- Total Area:    0.492056
-----------------------------------------
CSV Power Result Header , Completion Time, Channel Wire, Channel Clock, Channel Retiming, Channel Leakage, Input Read, Input Write, Input Leakage, Switch Power, Switch Control, Switch Leakage, Output DFF, Output Clk, Output Control
CSV Power Result , 56762, 1.45676, 1.46183, 0.0180995, 0.551082, 0.0333063, 0.0333063, 0.113246, 0.0724734, 0.037394, 0.771052, 0.00776266, 0.727126, 0.00400617
delete:0x7ffd4089ec70
delete:0x7ffd4089ec70
