generate:0x7ffdc96f28d0
generate:0x7ffdc96f2a40
BEGIN Configuration File: interposer2
//topology
topology = mesh;
k = 8;
n = 2;
type = interposer;
// Routing
routing_function = dor;

// Flow control
num_vcs     = 2;
vc_buf_size = 8;
wait_for_tail_credit = 1;
hold_switch_for_packet = 1;

// Router architecture
vc_allocator = islip;
sw_allocator = islip;
alloc_iters  = 1;

credit_delay   = 0;
routing_delay  = 1;
vc_alloc_delay = 1;
sw_alloc_delay = 1;
st_final_delay = 1;

input_speedup     = 1;
output_speedup    = 1;
internal_speedup  = 1.0;
vc_busy_when_full = 0;


//granulaity
latency_thres=20000.0;
deadlock_warn_timeout=20000;
traceStretch=3;

//gating
doGating=0;
sleepThreshold=40;
breakEvenThreshold=80;



//Syn Traffic
//sim_type=latency;
sim_type=throughput;
traffic=uniform;
packet_size = 1;
sample_period=5000;
warmup_periods=1;
max_samples=11;
injection_rate=0.008;

creditDelays=creditDelays({0,0,0,0,0,0,0,0,0,0,0,0,0,0,0,0,0,0,0,0,0,0,0,0,0,0,0,0,0,0,0,0,0,0,0,0,0,0,0,0,0,0,0,0,0,0,0,0,0,0,0,0,0,0,0,0,0,0,0,0,0,0,0,0}});
routingDelays=routingDelays({15,15,15,15,15,15,15,15,15,15,15,15,15,15,15,15,15,15,15,15,15,15,15,15,15,15,15,15,15,15,15,15,15,15,15,15,15,15,15,15,15,15,15,15,15,15,15,15,15,15,15,15,15,15,15,15,15,15,15,15,15,15,15,15});
vcAllocDelays=vcAllocDelays({15,15,15,15,15,15,15,15,15,15,15,15,15,15,15,15,15,15,15,15,15,15,15,15,15,15,15,15,15,15,15,15,15,15,15,15,15,15,15,15,15,15,15,15,15,15,15,15,15,15,15,15,15,15,15,15,15,15,15,15,15,15,15,15});
swAllocDelays=swAllocDelays({15,15,15,15,15,15,15,15,15,15,15,15,15,15,15,15,15,15,15,15,15,15,15,15,15,15,15,15,15,15,15,15,15,15,15,15,15,15,15,15,15,15,15,15,15,15,15,15,15,15,15,15,15,15,15,15,15,15,15,15,15,15,15,15});
stFinalDelays=stFinalDelays({15,15,15,15,15,15,15,15,15,15,15,15,15,15,15,15,15,15,15,15,15,15,15,15,15,15,15,15,15,15,15,15,15,15,15,15,15,15,15,15,15,15,15,15,15,15,15,15,15,15,15,15,15,15,15,15,15,15,15,15,15,15,15,15});

isAsync=isAsync({1,1,1,1,1,1,1,1,1,1,1,1,1,1,1,1,1,1,1,1,1,1,1,1,1,1,1,1,1,1,1,1,1,1,1,1,1,1,1,1,1,1,1,1,1,1,1,1,1,1,1,1,1,1,1,1,1,1,1,1,1,1,1,1});
isMetaUnstable=isMetaUnstable({0,0,0,0,0,0,0,0,0,0,0,0,0,0,0,0,0,0,0,0,0,0,0,0,0,0,0,0,0,0,0,0,0,0,0,0,0,0,0,0,0,0,0,0,0,0,0,0,0,0,0,0,0,0,0,0,0,0,0,0,0,0,0,0});

creditDelayStdDevs=creditDelayStdDevs({0,0,0,0,0,0,0,0,0,0,0,0,0,0,0,0,0,0,0,0,0,0,0,0,0,0,0,0,0,0,0,0,0,0,0,0,0,0,0,0,0,0,0,0,0,0,0,0,0,0,0,0,0,0,0,0,0,0,0,0,0,0,0,0});
routingDelayStdDevs=routingDelayStdDevs({0,0,0,0,0,0,0,0,0,0,0,0,0,0,0,0,0,0,0,0,0,0,0,0,0,0,0,0,0,0,0,0,0,0,0,0,0,0,0,0,0,0,0,0,0,0,0,0,0,0,0,0,0,0,0,0,0,0,0,0,0,0,0,0});
vcAllocDelayStdDevs=vcAllocDelayStdDevs({0,0,0,0,0,0,0,0,0,0,0,0,0,0,0,0,0,0,0,0,0,0,0,0,0,0,0,0,0,0,0,0,0,0,0,0,0,0,0,0,0,0,0,0,0,0,0,0,0,0,0,0,0,0,0,0,0,0,0,0,0,0,0,0});
swAllocDelayStdDevs=swAllocDelayStdDevs({0,0,0,0,0,0,0,0,0,0,0,0,0,0,0,0,0,0,0,0,0,0,0,0,0,0,0,0,0,0,0,0,0,0,0,0,0,0,0,0,0,0,0,0,0,0,0,0,0,0,0,0,0,0,0,0,0,0,0,0,0,0,0,0});
stFinalDelayStdDevs=stFinalDelayStdDevs({0,0,0,0,0,0,0,0,0,0,0,0,0,0,0,0,0,0,0,0,0,0,0,0,0,0,0,0,0,0,0,0,0,0,0,0,0,0,0,0,0,0,0,0,0,0,0,0,0,0,0,0,0,0,0,0,0,0,0,0,0,0,0,0});

  
swAllocThresholds=swAllocThresholds({1,1,1,1,1,1,1,1,1,1,1,1,1,1,1,1,1,1,1,1,1,1,1,1,1,1,1,1,1,1,1,1,1,1,1,1,1,1,1,1,1,1,1,1,1,1,1,1,1,1,1,1,1,1,1,1,1,1,1,1,1,1,1,1});
swAllocThresholdStdDevs=swAllocThresholdStdDevs({0,0,0,0,0,0,0,0,0,0,0,0,0,0,0,0,0,0,0,0,0,0,0,0,0,0,0,0,0,0,0,0,0,0,0,0,0,0,0,0,0,0,0,0,0,0,0,0,0,0,0,0,0,0,0,0,0,0,0,0,0,0,0,0});
swAllocMetaStableThresholds=swAllocMetaStableThresholds({1,1,1,1,1,1,1,1,1,1,1,1,1,1,1,1,1,1,1,1,1,1,1,1,1,1,1,1,1,1,1,1,1,1,1,1,1,1,1,1,1,1,1,1,1,1,1,1,1,1,1,1,1,1,1,1,1,1,1,1,1,1,1,1});
swAllocMetaStableMaxPenalities=swAllocMetaStableMaxPenalities({0,0,0,0,0,0,0,0,0,0,0,0,0,0,0,0,0,0,0,0,0,0,0,0,0,0,0,0,0,0,0,0,0,0,0,0,0,0,0,0,0,0,0,0,0,0,0,0,0,0,0,0,0,0,0,0,0,0,0,0,0,0,0,0});

END Configuration File: interposer2
rid:0 add uselessoutput chan256
rid:1 add uselessoutput chan256
rid:2 add uselessoutput chan256
rid:3 add uselessoutput chan256
rid:4 add uselessoutput chan256
rid:5 add uselessoutput chan256
rid:6 add uselessoutput chan256
rid:7 add uselessoutput chan256
rid:8 add uselessoutput chan256
rid:9 add uselessoutput chan256
rid:10 add uselessoutput chan256
rid:11 add uselessoutput chan256
rid:12 add uselessoutput chan256
rid:13 add uselessoutput chan256
rid:14 add uselessoutput chan256
rid:15 add uselessoutput chan256
rid:16 add uselessoutput chan256
rid:17 add uselessoutput chan256
rid:18 add uselessoutput chan256
rid:19 add uselessoutput chan256
rid:20 add uselessoutput chan256
rid:21 add uselessoutput chan256
rid:22 add uselessoutput chan256
rid:23 add uselessoutput chan256
rid:24 add uselessoutput chan256
rid:25 add uselessoutput chan256
rid:26 add uselessoutput chan256
rid:27 add uselessoutput chan256
rid:28 add uselessoutput chan256
rid:29 add uselessoutput chan256
rid:30 add uselessoutput chan256
rid:31 add uselessoutput chan256
rid:32 add uselessoutput chan256
rid:33 add uselessoutput chan256
rid:34 add uselessoutput chan256
rid:35 add uselessoutput chan256
rid:36 add uselessoutput chan256
rid:37 add uselessoutput chan256
rid:38 add uselessoutput chan256
rid:39 add uselessoutput chan256
rid:40 add uselessoutput chan256
rid:41 add uselessoutput chan256
rid:42 add uselessoutput chan256
rid:43 add uselessoutput chan256
rid:44 add uselessoutput chan256
rid:45 add uselessoutput chan256
rid:46 add uselessoutput chan256
rid:47 add uselessoutput chan256
rid:48 add uselessoutput chan256
rid:49 add uselessoutput chan256
rid:50 add uselessoutput chan256
rid:51 add uselessoutput chan256
rid:52 add uselessoutput chan256
rid:53 add uselessoutput chan256
rid:54 add uselessoutput chan256
rid:55 add uselessoutput chan256
rid:56 add uselessoutput chan256
rid:57 add uselessoutput chan256
rid:58 add uselessoutput chan256
rid:59 add uselessoutput chan256
rid:60 add uselessoutput chan256
rid:61 add uselessoutput chan256
rid:62 add uselessoutput chan256
rid:63 add uselessoutput chan256

Tick: 0M
===== Time: 5000 =====
Class 0:
Minimum packet latency = 62
Average packet latency = 747.009
Maximum packet latency = 3778
Minimum network latency = 63
Average network latency = 659.645
Maximum network latency = 3779
Slowest packet = 497
Minimum flit latency = 63
Average flit latency = 659.645
Maximum flit latency = 3779
Slowest flit = 497
Minimum fragmentation = 0
Average fragmentation = 0
Maximum fragmentation = 0
Minimum injected packet rate = 0.003 (at node 54)
Average injected packet rate = 0.00671563
Maximum injected packet rate = 0.0102 (at node 45)
Minimum accepted packet rate = 0.0038 (at node 23)
Average accepted packet rate = 0.00575313
Maximum accepted packet rate = 0.0082 (at node 51)
Minimum injected flit rate = 0.003 (at node 54)
Average injected flit rate = 0.00671563
Maximum injected flit rate = 0.0102 (at node 45)
Minimum accepted flit rate = 0.0038 (at node 23)
Average accepted flit rate = 0.00575313
Maximum accepted flit rate = 0.0082 (at node 51)
Total number of injected packets = 2149
Total number of injected flits = 2149
Average injected packet length = 1
Total number of accepted packets = 1841
Total number of accepted flits = 1841
Average accepted packet length = 1
Total in-flight flits = 346 (0 measured)
class 0 latency change    = 1
class 0 throughput change = 1
Warmed up ...Time used is 5000 cycles
===== Time: 10000 =====
Class 0:
Minimum packet latency = 62
Average packet latency = 1494.83
Maximum packet latency = 6054
Minimum network latency = 63
Average network latency = 744.424
Maximum network latency = 3245
Slowest packet = 2189
Minimum flit latency = 63
Average flit latency = 835.008
Maximum flit latency = 4690
Slowest flit = 480
Minimum fragmentation = 0
Average fragmentation = 0
Maximum fragmentation = 0
Minimum injected packet rate = 0.003 (at node 0)
Average injected packet rate = 0.00634375
Maximum injected packet rate = 0.01 (at node 60)
Minimum accepted packet rate = 0.0032 (at node 50)
Average accepted packet rate = 0.00625
Maximum accepted packet rate = 0.0092 (at node 40)
Minimum injected flit rate = 0.003 (at node 0)
Average injected flit rate = 0.00634375
Maximum injected flit rate = 0.01 (at node 60)
Minimum accepted flit rate = 0.0032 (at node 50)
Average accepted flit rate = 0.00625
Maximum accepted flit rate = 0.0092 (at node 40)
Total number of injected packets = 2030
Total number of injected flits = 2030
Average injected packet length = 1
Total number of accepted packets = 2000
Total number of accepted flits = 2000
Average accepted packet length = 1
Total in-flight flits = 383 (383 measured)
class 0 latency change    = 0.500271
class 0 throughput change = 0.0795
===== Time: 15000 =====
Class 0:
Minimum packet latency = 62
Average packet latency = 1949.63
Maximum packet latency = 9807
Minimum network latency = 63
Average network latency = 839.078
Maximum network latency = 4710
Slowest packet = 2189
Minimum flit latency = 63
Average flit latency = 877.458
Maximum flit latency = 4710
Slowest flit = 3472
Minimum fragmentation = 0
Average fragmentation = 0
Maximum fragmentation = 0
Minimum injected packet rate = 0.0026 (at node 15)
Average injected packet rate = 0.00612187
Maximum injected packet rate = 0.0091 (at node 60)
Minimum accepted packet rate = 0.0038 (at node 52)
Average accepted packet rate = 0.00604219
Maximum accepted packet rate = 0.0079 (at node 54)
Minimum injected flit rate = 0.0026 (at node 15)
Average injected flit rate = 0.00612187
Maximum injected flit rate = 0.0091 (at node 60)
Minimum accepted flit rate = 0.0038 (at node 52)
Average accepted flit rate = 0.00604219
Maximum accepted flit rate = 0.0079 (at node 54)
Total number of injected packets = 3918
Total number of injected flits = 3918
Average injected packet length = 1
Total number of accepted packets = 3867
Total number of accepted flits = 3867
Average accepted packet length = 1
Total in-flight flits = 416 (416 measured)
class 0 latency change    = 0.233276
class 0 throughput change = 0.0343936
===== Time: 20000 =====
Class 0:
Minimum packet latency = 62
Average packet latency = 2434.13
Maximum packet latency = 13352
Minimum network latency = 63
Average network latency = 870.854
Maximum network latency = 6489
Slowest packet = 2189
Minimum flit latency = 63
Average flit latency = 894.47
Maximum flit latency = 6489
Slowest flit = 5395
Minimum fragmentation = 0
Average fragmentation = 0
Maximum fragmentation = 0
Minimum injected packet rate = 0.0024 (at node 15)
Average injected packet rate = 0.00609167
Maximum injected packet rate = 0.00886667 (at node 43)
Minimum accepted packet rate = 0.0046 (at node 10)
Average accepted packet rate = 0.00606146
Maximum accepted packet rate = 0.00806667 (at node 49)
Minimum injected flit rate = 0.0024 (at node 15)
Average injected flit rate = 0.00609167
Maximum injected flit rate = 0.00886667 (at node 43)
Minimum accepted flit rate = 0.0046 (at node 10)
Average accepted flit rate = 0.00606146
Maximum accepted flit rate = 0.00806667 (at node 49)
Total number of injected packets = 5848
Total number of injected flits = 5848
Average injected packet length = 1
Total number of accepted packets = 5819
Total number of accepted flits = 5819
Average accepted packet length = 1
Total in-flight flits = 384 (384 measured)
class 0 latency change    = 0.199043
class 0 throughput change = 0.00317924
===== Time: 25000 =====
Class 0:
Minimum packet latency = 62
Average packet latency = 2904.71
Maximum packet latency = 15427
Minimum network latency = 63
Average network latency = 878.479
Maximum network latency = 6489
Slowest packet = 2189
Minimum flit latency = 63
Average flit latency = 895.851
Maximum flit latency = 6489
Slowest flit = 5395
Minimum fragmentation = 0
Average fragmentation = 0
Maximum fragmentation = 0
Minimum injected packet rate = 0.003 (at node 15)
Average injected packet rate = 0.00608984
Maximum injected packet rate = 0.00905 (at node 29)
Minimum accepted packet rate = 0.0043 (at node 52)
Average accepted packet rate = 0.00606172
Maximum accepted packet rate = 0.00725 (at node 49)
Minimum injected flit rate = 0.003 (at node 15)
Average injected flit rate = 0.00608984
Maximum injected flit rate = 0.00905 (at node 29)
Minimum accepted flit rate = 0.0043 (at node 52)
Average accepted flit rate = 0.00606172
Maximum accepted flit rate = 0.00725 (at node 49)
Total number of injected packets = 7795
Total number of injected flits = 7795
Average injected packet length = 1
Total number of accepted packets = 7759
Total number of accepted flits = 7759
Average accepted packet length = 1
Total in-flight flits = 395 (395 measured)
class 0 latency change    = 0.162008
class 0 throughput change = 4.29609e-05
===== Time: 30000 =====
Class 0:
Minimum packet latency = 62
Average packet latency = 3371.15
Maximum packet latency = 17332
Minimum network latency = 63
Average network latency = 887.677
Maximum network latency = 7464
Slowest packet = 2189
Minimum flit latency = 63
Average flit latency = 901.289
Maximum flit latency = 7464
Slowest flit = 8088
Minimum fragmentation = 0
Average fragmentation = 0
Maximum fragmentation = 0
Minimum injected packet rate = 0.00284 (at node 48)
Average injected packet rate = 0.00607313
Maximum injected packet rate = 0.0086 (at node 60)
Minimum accepted packet rate = 0.0044 (at node 52)
Average accepted packet rate = 0.0060425
Maximum accepted packet rate = 0.0072 (at node 24)
Minimum injected flit rate = 0.00284 (at node 48)
Average injected flit rate = 0.00607313
Maximum injected flit rate = 0.0086 (at node 60)
Minimum accepted flit rate = 0.0044 (at node 52)
Average accepted flit rate = 0.0060425
Maximum accepted flit rate = 0.0072 (at node 24)
Total number of injected packets = 9717
Total number of injected flits = 9717
Average injected packet length = 1
Total number of accepted packets = 9668
Total number of accepted flits = 9668
Average accepted packet length = 1
Total in-flight flits = 407 (407 measured)
class 0 latency change    = 0.138362
class 0 throughput change = 0.0031806
===== Time: 35000 =====
Class 0:
Minimum packet latency = 62
Average packet latency = 3852.64
Maximum packet latency = 20989
Minimum network latency = 63
Average network latency = 893.417
Maximum network latency = 7464
Slowest packet = 2189
Minimum flit latency = 63
Average flit latency = 904.567
Maximum flit latency = 7464
Slowest flit = 8088
Minimum fragmentation = 0
Average fragmentation = 0
Maximum fragmentation = 0
Minimum injected packet rate = 0.0031 (at node 15)
Average injected packet rate = 0.0060724
Maximum injected packet rate = 0.00896667 (at node 60)
Minimum accepted packet rate = 0.0044 (at node 52)
Average accepted packet rate = 0.00605417
Maximum accepted packet rate = 0.00733333 (at node 24)
Minimum injected flit rate = 0.0031 (at node 15)
Average injected flit rate = 0.0060724
Maximum injected flit rate = 0.00896667 (at node 60)
Minimum accepted flit rate = 0.0044 (at node 52)
Average accepted flit rate = 0.00605417
Maximum accepted flit rate = 0.00733333 (at node 24)
Total number of injected packets = 11659
Total number of injected flits = 11659
Average injected packet length = 1
Total number of accepted packets = 11624
Total number of accepted flits = 11624
Average accepted packet length = 1
Total in-flight flits = 393 (393 measured)
class 0 latency change    = 0.124975
class 0 throughput change = 0.00192705
===== Time: 40000 =====
Class 0:
Minimum packet latency = 62
Average packet latency = 4236.05
Maximum packet latency = 24240
Minimum network latency = 63
Average network latency = 894.155
Maximum network latency = 7464
Slowest packet = 2189
Minimum flit latency = 63
Average flit latency = 903.671
Maximum flit latency = 7464
Slowest flit = 8088
Minimum fragmentation = 0
Average fragmentation = 0
Maximum fragmentation = 0
Minimum injected packet rate = 0.00294286 (at node 15)
Average injected packet rate = 0.00608973
Maximum injected packet rate = 0.00891429 (at node 19)
Minimum accepted packet rate = 0.00457143 (at node 52)
Average accepted packet rate = 0.00606875
Maximum accepted packet rate = 0.007 (at node 24)
Minimum injected flit rate = 0.00294286 (at node 15)
Average injected flit rate = 0.00608973
Maximum injected flit rate = 0.00891429 (at node 19)
Minimum accepted flit rate = 0.00457143 (at node 52)
Average accepted flit rate = 0.00606875
Maximum accepted flit rate = 0.007 (at node 24)
Total number of injected packets = 13641
Total number of injected flits = 13641
Average injected packet length = 1
Total number of accepted packets = 13594
Total number of accepted flits = 13594
Average accepted packet length = 1
Total in-flight flits = 408 (408 measured)
class 0 latency change    = 0.0905116
class 0 throughput change = 0.00240302
===== Time: 45000 =====
Class 0:
Minimum packet latency = 62
Average packet latency = 4672.8
Maximum packet latency = 27732
Minimum network latency = 63
Average network latency = 898.116
Maximum network latency = 7464
Slowest packet = 2189
Minimum flit latency = 63
Average flit latency = 906.351
Maximum flit latency = 7464
Slowest flit = 8088
Minimum fragmentation = 0
Average fragmentation = 0
Maximum fragmentation = 0
Minimum injected packet rate = 0.00305 (at node 15)
Average injected packet rate = 0.00608633
Maximum injected packet rate = 0.008975 (at node 19)
Minimum accepted packet rate = 0.004825 (at node 52)
Average accepted packet rate = 0.00607109
Maximum accepted packet rate = 0.00695 (at node 11)
Minimum injected flit rate = 0.00305 (at node 15)
Average injected flit rate = 0.00608633
Maximum injected flit rate = 0.008975 (at node 19)
Minimum accepted flit rate = 0.004825 (at node 52)
Average accepted flit rate = 0.00607109
Maximum accepted flit rate = 0.00695 (at node 11)
Total number of injected packets = 15581
Total number of injected flits = 15581
Average injected packet length = 1
Total number of accepted packets = 15542
Total number of accepted flits = 15542
Average accepted packet length = 1
Total in-flight flits = 394 (394 measured)
class 0 latency change    = 0.0934681
class 0 throughput change = 0.000386051
===== Time: 50000 =====
Class 0:
Minimum packet latency = 62
Average packet latency = 5113.86
Maximum packet latency = 31613
Minimum network latency = 63
Average network latency = 900.305
Maximum network latency = 7464
Slowest packet = 2189
Minimum flit latency = 63
Average flit latency = 907.595
Maximum flit latency = 7464
Slowest flit = 8088
Minimum fragmentation = 0
Average fragmentation = 0
Maximum fragmentation = 0
Minimum injected packet rate = 0.00306667 (at node 15)
Average injected packet rate = 0.00607604
Maximum injected packet rate = 0.00904444 (at node 19)
Minimum accepted packet rate = 0.00488889 (at node 52)
Average accepted packet rate = 0.00606007
Maximum accepted packet rate = 0.00688889 (at node 38)
Minimum injected flit rate = 0.00306667 (at node 15)
Average injected flit rate = 0.00607604
Maximum injected flit rate = 0.00904444 (at node 19)
Minimum accepted flit rate = 0.00488889 (at node 52)
Average accepted flit rate = 0.00606007
Maximum accepted flit rate = 0.00688889 (at node 38)
Total number of injected packets = 17499
Total number of injected flits = 17499
Average injected packet length = 1
Total number of accepted packets = 17453
Total number of accepted flits = 17453
Average accepted packet length = 1
Total in-flight flits = 404 (404 measured)
class 0 latency change    = 0.0862472
class 0 throughput change = 0.00181917
===== Time: 55000 =====
Class 0:
Minimum packet latency = 62
Average packet latency = 5563.05
Maximum packet latency = 34896
Minimum network latency = 63
Average network latency = 904.054
Maximum network latency = 7553
Slowest packet = 2189
Minimum flit latency = 63
Average flit latency = 910.574
Maximum flit latency = 7553
Slowest flit = 18479
Minimum fragmentation = 0
Average fragmentation = 0
Maximum fragmentation = 0
Minimum injected packet rate = 0.0031 (at node 15)
Average injected packet rate = 0.00605062
Maximum injected packet rate = 0.00918 (at node 19)
Minimum accepted packet rate = 0.00498 (at node 52)
Average accepted packet rate = 0.00603594
Maximum accepted packet rate = 0.00676 (at node 38)
Minimum injected flit rate = 0.0031 (at node 15)
Average injected flit rate = 0.00605062
Maximum injected flit rate = 0.00918 (at node 19)
Minimum accepted flit rate = 0.00498 (at node 52)
Average accepted flit rate = 0.00603594
Maximum accepted flit rate = 0.00676 (at node 38)
Total number of injected packets = 19362
Total number of injected flits = 19362
Average injected packet length = 1
Total number of accepted packets = 19315
Total number of accepted flits = 19315
Average accepted packet length = 1
Total in-flight flits = 410 (410 measured)
class 0 latency change    = 0.0807456
class 0 throughput change = 0.00399804
Draining remaining packets ...
Class 0:
Remaining flits: 19913 20531 20706 20714 20752 20850 20858 20883 20908 20936 [...] (62 flits)
Measured flits: 19913 20531 20706 20714 20752 20850 20858 20883 20908 20936 [...] (62 flits)
Time taken is 56776 cycles
====== Traffic class 0 ======

Total number of flits generated = 21566, changed lanes = 0
Overall minimum packet latency = 62 (1 samples)
Overall average packet latency = 5747.91 (1 samples)
Overall maximum packet latency = 35952 (1 samples)
Overall minimum network latency = 63 (1 samples)
Overall average network latency = 910.327 (1 samples)
Overall maximum network latency = 7553 (1 samples)
Overall minimum flit latency = 63 (1 samples)
Overall average flit latency = 916.601 (1 samples)
Overall maximum flit latency = 7553 (1 samples)
Overall minimum fragmentation = 0 (1 samples)
Overall average fragmentation = 0 (1 samples)
Overall maximum fragmentation = 0 (1 samples)
Overall minimum injected packet rate = 0.0031 (1 samples)
Overall average injected packet rate = 0.00605062 (1 samples)
Overall maximum injected packet rate = 0.00918 (1 samples)
Overall minimum accepted packet rate = 0.00498 (1 samples)
Overall average accepted packet rate = 0.00603594 (1 samples)
Overall maximum accepted packet rate = 0.00676 (1 samples)
Overall minimum injected flit rate = 0.0031 (1 samples)
Overall average injected flit rate = 0.00605062 (1 samples)
Overall maximum injected flit rate = 0.00918 (1 samples)
Overall minimum accepted flit rate = 0.00498 (1 samples)
Overall average accepted flit rate = 0.00603594 (1 samples)
Overall maximum accepted flit rate = 0.00676 (1 samples)
Overall average injected packet size = 1 (1 samples)
Overall average accepted packet size = 1 (1 samples)
Overall average hops = 6.11332 (1 samples)
Overall throughput of the network (flits/cycle) = 0.43132
Overall throughput of the network (packets/cycle) = 0.43132
CSV Result Header , avgFLat,avgFInjRate
CSV Result ,916.601,0.00605062

Power Report Header, Frequency, Time, StaticIQ, DynamicIQ, StaticVC, DynamicVC, StaticSA, DynamicSA, StaticST, DynamicST, StaticLink, DynamicLink, NoFlits, ePerFlit
Power Report,3.9e+08,56776,0.131875,0.0117257,0.00749762,0.000345271,0.00224928,0.000314435,0.477597,0.00395472,0.0905466,0.00945516,21566,4.96767e-09

*****************************************
Total run time 11.3316
generate:0x7ffdc96f2340
delete:0x7ffdc96f2340
L = 2 K = 8.1 M = 2 N = 1
-----------------------------------------
- OCN Power Summary
- Completion Time:         56776
- Flit Widths:            64
- Channel Wire Power:      1.48199
- Channel Clock Power:     1.46183
- Channel Retiming Power:  0.0184129
- Channel Leakage Power:   0.551082
- Input Read Power:        0.0339508
- Input Write Power:       0.0339508
- Input Leakage Power:     0.113246
- Switch Power:            0.0738045
- Switch Control Power:    0.0381175
- Switch Leakage Power:    0.771052
- Output DFF Power:        0.00791286
- Output Clk Power:        0.727126
- Output Control Power:    0.00408369
- Total Power:             5.31656
-----------------------------------------

-----------------------------------------
- OCN Area Summary
- Channel Area:  0.109536
- Switch  Area:  0.241592
- Input  Area:   0.120796
- Output  Area:  0.0201327
- Total Area:    0.492056
-----------------------------------------
CSV Power Result Header , Completion Time, Channel Wire, Channel Clock, Channel Retiming, Channel Leakage, Input Read, Input Write, Input Leakage, Switch Power, Switch Control, Switch Leakage, Output DFF, Output Clk, Output Control
CSV Power Result , 56776, 1.48199, 1.46183, 0.0184129, 0.551082, 0.0339508, 0.0339508, 0.113246, 0.0738045, 0.0381175, 0.771052, 0.00791286, 0.727126, 0.00408369
delete:0x7ffdc96f2340
delete:0x7ffdc96f2340
