generate:0x7ffe3bf5b360
generate:0x7ffe3bf5b418
generate:0x7ffe3bf5b4d0
generate:0x7ffe3bf5b588
generate:0x7ffe3bf5b640
generate:0x7ffe3bf5b7b0
BEGIN Configuration File: interposer1
//topology
topology = mesh;
k = 8;
n = 2;
type = interposer;
// Routing
routing_function = dor;

// Flow control
num_vcs     = 2;
vc_buf_size = 8;
wait_for_tail_credit = 1;
hold_switch_for_packet = 1;

// Router architecture
vc_allocator = islip;
sw_allocator = islip;
alloc_iters  = 1;

credit_delay   = 0;
routing_delay  = 1;
vc_alloc_delay = 1;
sw_alloc_delay = 1;
st_final_delay = 1;

input_speedup     = 1;
output_speedup    = 1;
internal_speedup  = 1.0;
vc_busy_when_full = 0;


//granulaity
latency_thres=20000.0;
deadlock_warn_timeout=20000;
traceStretch=3;

//gating
doGating=0;
sleepThreshold=40;
breakEvenThreshold=80;



//Syn Traffic
//sim_type=latency;
sim_type=throughput;
traffic=uniform;
packet_size = 1;
sample_period=5000;
warmup_periods=1;
max_samples=11;
injection_rate=0.004;

creditDelays=creditDelays({0,0,0,0,0,0,0,0,0,0,0,0,0,0,0,0,0,0,0,0,0,0,0,0,0,0,0,0,0,0,0,0,0,0,0,0,0,0,0,0,0,0,0,0,0,0,0,0,0,0,0,0,0,0,0,0,0,0,0,0,0,0,0,0}});
routingDelays=routingDelays({13,13,13,13,13,13,13,13,13,13,13,13,13,13,13,13,13,13,13,13,13,13,13,13,13,13,13,13,13,13,13,13,13,13,13,13,13,13,13,13,13,13,13,13,13,13,13,13,13,13,13,13,13,13,13,13,13,13,13,13,13,13,13,13});
vcAllocDelays=vcAllocDelays({10,10,10,10,10,10,10,10,10,10,10,10,10,10,10,10,10,10,10,10,10,10,10,10,10,10,10,10,10,10,10,10,10,10,10,10,10,10,10,10,10,10,10,10,10,10,10,10,10,10,10,10,10,10,10,10,10,10,10,10,10,10,10,10});
swAllocDelays=swAllocDelays({15,15,15,15,15,15,15,15,15,15,15,15,15,15,15,15,15,15,15,15,15,15,15,15,15,15,15,15,15,15,15,15,15,15,15,15,15,15,15,15,15,15,15,15,15,15,15,15,15,15,15,15,15,15,15,15,15,15,15,15,15,15,15,15});
stFinalDelays=stFinalDelays({12,12,12,12,12,12,12,12,12,12,12,12,12,12,12,12,12,12,12,12,12,12,12,12,12,12,12,12,12,12,12,12,12,12,12,12,12,12,12,12,12,12,12,12,12,12,12,12,12,12,12,12,12,12,12,12,12,12,12,12,12,12,12,12});
//channelDelays=channelDelays({1,1,1,1,1,1,1,1,1,1,1,1,1,1,1,1,1,1,1,1,1,1,1,1,1,1,1,1,1,1,1,1,1,1,1,1,1,1,1,1,1,1,1,1,1,1,1,1,1,1,1,1,1,1,1,1,1,1,1,1,1,1,1,1});

isAsync=isAsync({1,1,1,1,1,1,1,1,1,1,1,1,1,1,1,1,1,1,1,1,1,1,1,1,1,1,1,1,1,1,1,1,1,1,1,1,1,1,1,1,1,1,1,1,1,1,1,1,1,1,1,1,1,1,1,1,1,1,1,1,1,1,1,1});
isMetaUnstable=isMetaUnstable({0,0,0,0,0,0,0,0,0,0,0,0,0,0,0,0,0,0,0,0,0,0,0,0,0,0,0,0,0,0,0,0,0,0,0,0,0,0,0,0,0,0,0,0,0,0,0,0,0,0,0,0,0,0,0,0,0,0,0,0,0,0,0,0});

creditDelayStdDevs=creditDelayStdDevs({0,0,0,0,0,0,0,0,0,0,0,0,0,0,0,0,0,0,0,0,0,0,0,0,0,0,0,0,0,0,0,0,0,0,0,0,0,0,0,0,0,0,0,0,0,0,0,0,0,0,0,0,0,0,0,0,0,0,0,0,0,0,0,0});
routingDelayStdDevs=routingDelayStdDevs({0,0,0,0,0,0,0,0,0,0,0,0,0,0,0,0,0,0,0,0,0,0,0,0,0,0,0,0,0,0,0,0,0,0,0,0,0,0,0,0,0,0,0,0,0,0,0,0,0,0,0,0,0,0,0,0,0,0,0,0,0,0,0,0});
vcAllocDelayStdDevs=vcAllocDelayStdDevs({0,0,0,0,0,0,0,0,0,0,0,0,0,0,0,0,0,0,0,0,0,0,0,0,0,0,0,0,0,0,0,0,0,0,0,0,0,0,0,0,0,0,0,0,0,0,0,0,0,0,0,0,0,0,0,0,0,0,0,0,0,0,0,0});
swAllocDelayStdDevs=swAllocDelayStdDevs({0,0,0,0,0,0,0,0,0,0,0,0,0,0,0,0,0,0,0,0,0,0,0,0,0,0,0,0,0,0,0,0,0,0,0,0,0,0,0,0,0,0,0,0,0,0,0,0,0,0,0,0,0,0,0,0,0,0,0,0,0,0,0,0});
stFinalDelayStdDevs=stFinalDelayStdDevs({0,0,0,0,0,0,0,0,0,0,0,0,0,0,0,0,0,0,0,0,0,0,0,0,0,0,0,0,0,0,0,0,0,0,0,0,0,0,0,0,0,0,0,0,0,0,0,0,0,0,0,0,0,0,0,0,0,0,0,0,0,0,0,0});

  
swAllocThresholds=swAllocThresholds({1,1,1,1,1,1,1,1,1,1,1,1,1,1,1,1,1,1,1,1,1,1,1,1,1,1,1,1,1,1,1,1,1,1,1,1,1,1,1,1,1,1,1,1,1,1,1,1,1,1,1,1,1,1,1,1,1,1,1,1,1,1,1,1});
swAllocThresholdStdDevs=swAllocThresholdStdDevs({0,0,0,0,0,0,0,0,0,0,0,0,0,0,0,0,0,0,0,0,0,0,0,0,0,0,0,0,0,0,0,0,0,0,0,0,0,0,0,0,0,0,0,0,0,0,0,0,0,0,0,0,0,0,0,0,0,0,0,0,0,0,0,0});
swAllocMetaStableThresholds=swAllocMetaStableThresholds({1,1,1,1,1,1,1,1,1,1,1,1,1,1,1,1,1,1,1,1,1,1,1,1,1,1,1,1,1,1,1,1,1,1,1,1,1,1,1,1,1,1,1,1,1,1,1,1,1,1,1,1,1,1,1,1,1,1,1,1,1,1,1,1});
swAllocMetaStableMaxPenalities=swAllocMetaStableMaxPenalities({0,0,0,0,0,0,0,0,0,0,0,0,0,0,0,0,0,0,0,0,0,0,0,0,0,0,0,0,0,0,0,0,0,0,0,0,0,0,0,0,0,0,0,0,0,0,0,0,0,0,0,0,0,0,0,0,0,0,0,0,0,0,0,0});

END Configuration File: interposer1
BEGIN Configuration File: chip1
//topology
topology = mesh;
k = 4;
n = 2;
type = chip;
start_point = 0;
cnum=1;
// Routing
routing_function = dor;

// Flow control
num_vcs     = 2;
vc_buf_size = 8;
wait_for_tail_credit = 1;
hold_switch_for_packet = 1;

// Router architecture
vc_allocator = islip;
sw_allocator = islip;
alloc_iters  = 1;

credit_delay   = 0;
routing_delay  = 1;
vc_alloc_delay = 1;
sw_alloc_delay = 1;
st_final_delay = 1;

input_speedup     = 1;
output_speedup    = 1;
internal_speedup  = 1.0;
vc_busy_when_full = 0;


//granulaity
latency_thres=20000.0;
deadlock_warn_timeout=20000;
traceStretch=3;

//gating
doGating=0;
sleepThreshold=40;
breakEvenThreshold=80;



//Syn Traffic
sim_type=latency;
traffic=uniform;
packet_size = 1;
sample_period=50000;
warmup_periods=1;
max_samples=12;
injection_rate=0.01;

creditDelays=creditDelays({0,0,0,0,0,0,0,0,0,0,0,0,0,0,0,0,0,0,0,0,0,0,0,0,0,0,0,0,0,0,0,0,0,0,0,0,0,0,0,0,0,0,0,0,0,0,0,0,0,0,0,0,0,0,0,0,0,0,0,0,0,0,0,0}});
routingDelays=routingDelays({13,13,13,13,13,13,13,13,13,13,13,13,13,13,13,13,13,13,13,13,13,13,13,13,13,13,13,13,13,13,13,13,13,13,13,13,13,13,13,13,13,13,13,13,13,13,13,13,13,13,13,13,13,13,13,13,13,13,13,13,13,13,13,13});
vcAllocDelays=vcAllocDelays({10,10,10,10,10,10,10,10,10,10,10,10,10,10,10,10,10,10,10,10,10,10,10,10,10,10,10,10,10,10,10,10,10,10,10,10,10,10,10,10,10,10,10,10,10,10,10,10,10,10,10,10,10,10,10,10,10,10,10,10,10,10,10,10});
swAllocDelays=swAllocDelays({15,15,15,15,15,15,15,15,15,15,15,15,15,15,15,15,15,15,15,15,15,15,15,15,15,15,15,15,15,15,15,15,15,15,15,15,15,15,15,15,15,15,15,15,15,15,15,15,15,15,15,15,15,15,15,15,15,15,15,15,15,15,15,15});
stFinalDelays=stFinalDelays({12,12,12,12,12,12,12,12,12,12,12,12,12,12,12,12,12,12,12,12,12,12,12,12,12,12,12,12,12,12,12,12,12,12,12,12,12,12,12,12,12,12,12,12,12,12,12,12,12,12,12,12,12,12,12,12,12,12,12,12,12,12,12,12});
//channelDelays=channelDelays({1,1,1,1,1,1,1,1,1,1,1,1,1,1,1,1});

isAsync=isAsync({1,1,1,1,1,1,1,1,1,1,1,1,1,1,1,1});
isMetaUnstable=isMetaUnstable({0,0,0,0,0,0,0,0,0,0,0,0,0,0,0,0});

creditDelayStdDevs=creditDelayStdDevs({0,0,0,0,0,0,0,0,0,0,0,0,0,0,0,0});
routingDelayStdDevs=routingDelayStdDevs({0,0,0,0,0,0,0,0,0,0,0,0,0,0,0,0});
vcAllocDelayStdDevs=vcAllocDelayStdDevs({0,0,0,0,0,0,0,0,0,0,0,0,0,0,0,0});
swAllocDelayStdDevs=swAllocDelayStdDevs({0,0,0,0,0,0,0,0,0,0,0,0,0,0,0,0});
stFinalDelayStdDevs=stFinalDelayStdDevs({0,0,0,0,0,0,0,0,0,0,0,0,0,0,0,0});

  
swAllocThresholds=swAllocThresholds({1,1,1,1,1,1,1,1,1,1,1,1,1,1,1,1});
swAllocThresholdStdDevs=swAllocThresholdStdDevs({0,0,0,0,0,0,0,0,0,0,0,0,0,0,0,0});
swAllocMetaStableThresholds=swAllocMetaStableThresholds({1,1,1,1,1,1,1,1,1,1,1,1,1,1,1,1});
swAllocMetaStableMaxPenalities=swAllocMetaStableMaxPenalities({0,0,0,0,0,0,0,0,0,0,0,0,0,0,0,0});

END Configuration File: chip1
BEGIN Configuration File: chip2
//topology
topology = mesh;
k = 4;
n = 2;
type = chip;
start_point = 4;
cnum=2;
// Routing
routing_function = dor;

// Flow control
num_vcs     = 2;
vc_buf_size = 8;
wait_for_tail_credit = 1;
hold_switch_for_packet = 1;

// Router architecture
vc_allocator = islip;
sw_allocator = islip;
alloc_iters  = 1;

credit_delay   = 0;
routing_delay  = 1;
vc_alloc_delay = 1;
sw_alloc_delay = 1;
st_final_delay = 1;

input_speedup     = 1;
output_speedup    = 1;
internal_speedup  = 1.0;
vc_busy_when_full = 0;


//granulaity
latency_thres=20000.0;
deadlock_warn_timeout=20000;
traceStretch=3;

//gating
doGating=0;
sleepThreshold=40;
breakEvenThreshold=80;



//Syn Traffic
sim_type=latency;
traffic=uniform;
packet_size = 1;
sample_period=50000;
warmup_periods=3;
max_samples=14;
injection_rate=0.01;

creditDelays=creditDelays({0,0,0,0,0,0,0,0,0,0,0,0,0,0,0,0,0,0,0,0,0,0,0,0,0,0,0,0,0,0,0,0,0,0,0,0,0,0,0,0,0,0,0,0,0,0,0,0,0,0,0,0,0,0,0,0,0,0,0,0,0,0,0,0}});
routingDelays=routingDelays({13,13,13,13,13,13,13,13,13,13,13,13,13,13,13,13,13,13,13,13,13,13,13,13,13,13,13,13,13,13,13,13,13,13,13,13,13,13,13,13,13,13,13,13,13,13,13,13,13,13,13,13,13,13,13,13,13,13,13,13,13,13,13,13});
vcAllocDelays=vcAllocDelays({10,10,10,10,10,10,10,10,10,10,10,10,10,10,10,10,10,10,10,10,10,10,10,10,10,10,10,10,10,10,10,10,10,10,10,10,10,10,10,10,10,10,10,10,10,10,10,10,10,10,10,10,10,10,10,10,10,10,10,10,10,10,10,10});
swAllocDelays=swAllocDelays({15,15,15,15,15,15,15,15,15,15,15,15,15,15,15,15,15,15,15,15,15,15,15,15,15,15,15,15,15,15,15,15,15,15,15,15,15,15,15,15,15,15,15,15,15,15,15,15,15,15,15,15,15,15,15,15,15,15,15,15,15,15,15,15});
stFinalDelays=stFinalDelays({12,12,12,12,12,12,12,12,12,12,12,12,12,12,12,12,12,12,12,12,12,12,12,12,12,12,12,12,12,12,12,12,12,12,12,12,12,12,12,12,12,12,12,12,12,12,12,12,12,12,12,12,12,12,12,12,12,12,12,12,12,12,12,12});
//channelDelays=channelDelays({1,1,1,1,1,1,1,1,1,1,1,1,1,1,1,1});

isAsync=isAsync({1,1,1,1,1,1,1,1,1,1,1,1,1,1,1,1});
isMetaUnstable=isMetaUnstable({0,0,0,0,0,0,0,0,0,0,0,0,0,0,0,0});

creditDelayStdDevs=creditDelayStdDevs({0,0,0,0,0,0,0,0,0,0,0,0,0,0,0,0});
routingDelayStdDevs=routingDelayStdDevs({0,0,0,0,0,0,0,0,0,0,0,0,0,0,0,0});
vcAllocDelayStdDevs=vcAllocDelayStdDevs({0,0,0,0,0,0,0,0,0,0,0,0,0,0,0,0});
swAllocDelayStdDevs=swAllocDelayStdDevs({0,0,0,0,0,0,0,0,0,0,0,0,0,0,0,0});
stFinalDelayStdDevs=stFinalDelayStdDevs({0,0,0,0,0,0,0,0,0,0,0,0,0,0,0,0});

  
swAllocThresholds=swAllocThresholds({1,1,1,1,1,1,1,1,1,1,1,1,1,1,1,1});
swAllocThresholdStdDevs=swAllocThresholdStdDevs({0,0,0,0,0,0,0,0,0,0,0,0,0,0,0,0});
swAllocMetaStableThresholds=swAllocMetaStableThresholds({1,1,1,1,1,1,1,1,1,1,1,1,1,1,1,1});
swAllocMetaStableMaxPenalities=swAllocMetaStableMaxPenalities({0,0,0,0,0,0,0,0,0,0,0,0,0,0,0,0});

END Configuration File: chip2
BEGIN Configuration File: chip3
//topology
topology = mesh;
k = 4;
n = 2;
type = chip;
start_point = 32;
// Routing
cnum=3;
routing_function = dor;

// Flow control
num_vcs     = 2;
vc_buf_size = 8;
wait_for_tail_credit = 1;
hold_switch_for_packet = 1;

// Router architecture
vc_allocator = islip;
sw_allocator = islip;
alloc_iters  = 1;

credit_delay   = 0;
routing_delay  = 1;
vc_alloc_delay = 1;
sw_alloc_delay = 1;
st_final_delay = 1;

input_speedup     = 1;
output_speedup    = 1;
internal_speedup  = 1.0;
vc_busy_when_full = 0;


//granulaity
latency_thres=20000.0;
deadlock_warn_timeout=20000;
traceStretch=3;

//gating
doGating=0;
sleepThreshold=40;
breakEvenThreshold=80;



//Syn Traffic
sim_type=latency;
traffic=uniform;
packet_size = 1;
sample_period=50000;
warmup_periods=3;
max_samples=14;
injection_rate=0.01;

creditDelays=creditDelays({0,0,0,0,0,0,0,0,0,0,0,0,0,0,0,0,0,0,0,0,0,0,0,0,0,0,0,0,0,0,0,0,0,0,0,0,0,0,0,0,0,0,0,0,0,0,0,0,0,0,0,0,0,0,0,0,0,0,0,0,0,0,0,0}});
routingDelays=routingDelays({13,13,13,13,13,13,13,13,13,13,13,13,13,13,13,13,13,13,13,13,13,13,13,13,13,13,13,13,13,13,13,13,13,13,13,13,13,13,13,13,13,13,13,13,13,13,13,13,13,13,13,13,13,13,13,13,13,13,13,13,13,13,13,13});
vcAllocDelays=vcAllocDelays({10,10,10,10,10,10,10,10,10,10,10,10,10,10,10,10,10,10,10,10,10,10,10,10,10,10,10,10,10,10,10,10,10,10,10,10,10,10,10,10,10,10,10,10,10,10,10,10,10,10,10,10,10,10,10,10,10,10,10,10,10,10,10,10});
swAllocDelays=swAllocDelays({15,15,15,15,15,15,15,15,15,15,15,15,15,15,15,15,15,15,15,15,15,15,15,15,15,15,15,15,15,15,15,15,15,15,15,15,15,15,15,15,15,15,15,15,15,15,15,15,15,15,15,15,15,15,15,15,15,15,15,15,15,15,15,15});
stFinalDelays=stFinalDelays({12,12,12,12,12,12,12,12,12,12,12,12,12,12,12,12,12,12,12,12,12,12,12,12,12,12,12,12,12,12,12,12,12,12,12,12,12,12,12,12,12,12,12,12,12,12,12,12,12,12,12,12,12,12,12,12,12,12,12,12,12,12,12,12});
//channelDelays=channelDelays({1,1,1,1,1,1,1,1,1,1,1,1,1,1,1,1});

isAsync=isAsync({1,1,1,1,1,1,1,1,1,1,1,1,1,1,1,1});
isMetaUnstable=isMetaUnstable({0,0,0,0,0,0,0,0,0,0,0,0,0,0,0,0});

creditDelayStdDevs=creditDelayStdDevs({0,0,0,0,0,0,0,0,0,0,0,0,0,0,0,0});
routingDelayStdDevs=routingDelayStdDevs({0,0,0,0,0,0,0,0,0,0,0,0,0,0,0,0});
vcAllocDelayStdDevs=vcAllocDelayStdDevs({0,0,0,0,0,0,0,0,0,0,0,0,0,0,0,0});
swAllocDelayStdDevs=swAllocDelayStdDevs({0,0,0,0,0,0,0,0,0,0,0,0,0,0,0,0});
stFinalDelayStdDevs=stFinalDelayStdDevs({0,0,0,0,0,0,0,0,0,0,0,0,0,0,0,0});

  
swAllocThresholds=swAllocThresholds({1,1,1,1,1,1,1,1,1,1,1,1,1,1,1,1});
swAllocThresholdStdDevs=swAllocThresholdStdDevs({0,0,0,0,0,0,0,0,0,0,0,0,0,0,0,0});
swAllocMetaStableThresholds=swAllocMetaStableThresholds({1,1,1,1,1,1,1,1,1,1,1,1,1,1,1,1});
swAllocMetaStableMaxPenalities=swAllocMetaStableMaxPenalities({0,0,0,0,0,0,0,0,0,0,0,0,0,0,0,0});

END Configuration File: chip3
BEGIN Configuration File: chip4
//topology
topology = mesh;
k = 4;
n = 2;
type = chip;
start_point = 36;
cnum=4;
// Routing
routing_function = dor;

// Flow control
num_vcs     = 2;
vc_buf_size = 8;
wait_for_tail_credit = 1;
hold_switch_for_packet = 1;

// Router architecture
vc_allocator = islip;
sw_allocator = islip;
alloc_iters  = 1;

credit_delay   = 0;
routing_delay  = 1;
vc_alloc_delay = 1;
sw_alloc_delay = 1;
st_final_delay = 1;

input_speedup     = 1;
output_speedup    = 1;
internal_speedup  = 1.0;
vc_busy_when_full = 0;


//granulaity
latency_thres=20000.0;
deadlock_warn_timeout=20000;
traceStretch=3;

//gating
doGating=0;
sleepThreshold=40;
breakEvenThreshold=80;



//Syn Traffic
sim_type=latency;
traffic=uniform;
packet_size = 1;
sample_period=50000;
warmup_periods=3;
max_samples=14;
injection_rate=0.01;

creditDelays=creditDelays({0,0,0,0,0,0,0,0,0,0,0,0,0,0,0,0,0,0,0,0,0,0,0,0,0,0,0,0,0,0,0,0,0,0,0,0,0,0,0,0,0,0,0,0,0,0,0,0,0,0,0,0,0,0,0,0,0,0,0,0,0,0,0,0}});
routingDelays=routingDelays({13,13,13,13,13,13,13,13,13,13,13,13,13,13,13,13,13,13,13,13,13,13,13,13,13,13,13,13,13,13,13,13,13,13,13,13,13,13,13,13,13,13,13,13,13,13,13,13,13,13,13,13,13,13,13,13,13,13,13,13,13,13,13,13});
vcAllocDelays=vcAllocDelays({10,10,10,10,10,10,10,10,10,10,10,10,10,10,10,10,10,10,10,10,10,10,10,10,10,10,10,10,10,10,10,10,10,10,10,10,10,10,10,10,10,10,10,10,10,10,10,10,10,10,10,10,10,10,10,10,10,10,10,10,10,10,10,10});
swAllocDelays=swAllocDelays({15,15,15,15,15,15,15,15,15,15,15,15,15,15,15,15,15,15,15,15,15,15,15,15,15,15,15,15,15,15,15,15,15,15,15,15,15,15,15,15,15,15,15,15,15,15,15,15,15,15,15,15,15,15,15,15,15,15,15,15,15,15,15,15});
stFinalDelays=stFinalDelays({12,12,12,12,12,12,12,12,12,12,12,12,12,12,12,12,12,12,12,12,12,12,12,12,12,12,12,12,12,12,12,12,12,12,12,12,12,12,12,12,12,12,12,12,12,12,12,12,12,12,12,12,12,12,12,12,12,12,12,12,12,12,12,12});
//channelDelays=channelDelays({1,1,1,1,1,1,1,1,1,1,1,1,1,1,1,1});

isAsync=isAsync({1,1,1,1,1,1,1,1,1,1,1,1,1,1,1,1});
isMetaUnstable=isMetaUnstable({0,0,0,0,0,0,0,0,0,0,0,0,0,0,0,0});

creditDelayStdDevs=creditDelayStdDevs({0,0,0,0,0,0,0,0,0,0,0,0,0,0,0,0});
routingDelayStdDevs=routingDelayStdDevs({0,0,0,0,0,0,0,0,0,0,0,0,0,0,0,0});
vcAllocDelayStdDevs=vcAllocDelayStdDevs({0,0,0,0,0,0,0,0,0,0,0,0,0,0,0,0});
swAllocDelayStdDevs=swAllocDelayStdDevs({0,0,0,0,0,0,0,0,0,0,0,0,0,0,0,0});
stFinalDelayStdDevs=stFinalDelayStdDevs({0,0,0,0,0,0,0,0,0,0,0,0,0,0,0,0});

  
swAllocThresholds=swAllocThresholds({1,1,1,1,1,1,1,1,1,1,1,1,1,1,1,1});
swAllocThresholdStdDevs=swAllocThresholdStdDevs({0,0,0,0,0,0,0,0,0,0,0,0,0,0,0,0});
swAllocMetaStableThresholds=swAllocMetaStableThresholds({1,1,1,1,1,1,1,1,1,1,1,1,1,1,1,1});
swAllocMetaStableMaxPenalities=swAllocMetaStableMaxPenalities({0,0,0,0,0,0,0,0,0,0,0,0,0,0,0,0});

END Configuration File: chip4
rid:0 add output _25chan1
rid:0 add input _25chan0
rid:1 add output _25chan3
rid:1 add input _25chan2
rid:2 add output _25chan5
rid:2 add input _25chan4
rid:3 add output _25chan7
rid:3 add input _25chan6
rid:4 add output _25chan33
rid:4 add input _25chan32
rid:5 add output _25chan35
rid:5 add input _25chan34
rid:6 add output _25chan37
rid:6 add input _25chan36
rid:7 add output _25chan39
rid:7 add input _25chan38
rid:8 add output _25chan9
rid:8 add input _25chan8
rid:9 add output _25chan11
rid:9 add input _25chan10
rid:10 add output _25chan13
rid:10 add input _25chan12
rid:11 add output _25chan15
rid:11 add input _25chan14
rid:12 add output _25chan41
rid:12 add input _25chan40
rid:13 add output _25chan43
rid:13 add input _25chan42
rid:14 add output _25chan45
rid:14 add input _25chan44
rid:15 add output _25chan47
rid:15 add input _25chan46
rid:16 add output _25chan17
rid:16 add input _25chan16
rid:17 add output _25chan19
rid:17 add input _25chan18
rid:18 add output _25chan21
rid:18 add input _25chan20
rid:19 add output _25chan23
rid:19 add input _25chan22
rid:20 add output _25chan49
rid:20 add input _25chan48
rid:21 add output _25chan51
rid:21 add input _25chan50
rid:22 add output _25chan53
rid:22 add input _25chan52
rid:23 add output _25chan55
rid:23 add input _25chan54
rid:24 add output _25chan25
rid:24 add input _25chan24
rid:25 add output _25chan27
rid:25 add input _25chan26
rid:26 add output _25chan29
rid:26 add input _25chan28
rid:27 add output _25chan31
rid:27 add input _25chan30
rid:28 add output _25chan57
rid:28 add input _25chan56
rid:29 add output _25chan59
rid:29 add input _25chan58
rid:30 add output _25chan61
rid:30 add input _25chan60
rid:31 add output _25chan63
rid:31 add input _25chan62
rid:32 add output _25chan65
rid:32 add input _25chan64
rid:33 add output _25chan67
rid:33 add input _25chan66
rid:34 add output _25chan69
rid:34 add input _25chan68
rid:35 add output _25chan71
rid:35 add input _25chan70
rid:36 add output _25chan97
rid:36 add input _25chan96
rid:37 add output _25chan99
rid:37 add input _25chan98
rid:38 add output _25chan101
rid:38 add input _25chan100
rid:39 add output _25chan103
rid:39 add input _25chan102
rid:40 add output _25chan73
rid:40 add input _25chan72
rid:41 add output _25chan75
rid:41 add input _25chan74
rid:42 add output _25chan77
rid:42 add input _25chan76
rid:43 add output _25chan79
rid:43 add input _25chan78
rid:44 add output _25chan105
rid:44 add input _25chan104
rid:45 add output _25chan107
rid:45 add input _25chan106
rid:46 add output _25chan109
rid:46 add input _25chan108
rid:47 add output _25chan111
rid:47 add input _25chan110
rid:48 add output _25chan81
rid:48 add input _25chan80
rid:49 add output _25chan83
rid:49 add input _25chan82
rid:50 add output _25chan85
rid:50 add input _25chan84
rid:51 add output _25chan87
rid:51 add input _25chan86
rid:52 add output _25chan113
rid:52 add input _25chan112
rid:53 add output _25chan115
rid:53 add input _25chan114
rid:54 add output _25chan117
rid:54 add input _25chan116
rid:55 add output _25chan119
rid:55 add input _25chan118
rid:56 add output _25chan89
rid:56 add input _25chan88
rid:57 add output _25chan91
rid:57 add input _25chan90
rid:58 add output _25chan93
rid:58 add input _25chan92
rid:59 add output _25chan95
rid:59 add input _25chan94
rid:60 add output _25chan121
rid:60 add input _25chan120
rid:61 add output _25chan123
rid:61 add input _25chan122
rid:62 add output _25chan125
rid:62 add input _25chan124
rid:63 add output _25chan127
rid:63 add input _25chan126
rid:0 add output _25chan0
rid:0 add input _25chan1
rid:1 add output _25chan2
rid:1 add input _25chan3
rid:2 add output _25chan4
rid:2 add input _25chan5
rid:3 add output _25chan6
rid:3 add input _25chan7
rid:4 add output _25chan8
rid:4 add input _25chan9
rid:5 add output _25chan10
rid:5 add input _25chan11
rid:6 add output _25chan12
rid:6 add input _25chan13
rid:7 add output _25chan14
rid:7 add input _25chan15
rid:8 add output _25chan16
rid:8 add input _25chan17
rid:9 add output _25chan18
rid:9 add input _25chan19
rid:10 add output _25chan20
rid:10 add input _25chan21
rid:11 add output _25chan22
rid:11 add input _25chan23
rid:12 add output _25chan24
rid:12 add input _25chan25
rid:13 add output _25chan26
rid:13 add input _25chan27
rid:14 add output _25chan28
rid:14 add input _25chan29
rid:15 add output _25chan30
rid:15 add input _25chan31
rid:0 add output _25chan32
rid:0 add input _25chan33
rid:1 add output _25chan34
rid:1 add input _25chan35
rid:2 add output _25chan36
rid:2 add input _25chan37
rid:3 add output _25chan38
rid:3 add input _25chan39
rid:4 add output _25chan40
rid:4 add input _25chan41
rid:5 add output _25chan42
rid:5 add input _25chan43
rid:6 add output _25chan44
rid:6 add input _25chan45
rid:7 add output _25chan46
rid:7 add input _25chan47
rid:8 add output _25chan48
rid:8 add input _25chan49
rid:9 add output _25chan50
rid:9 add input _25chan51
rid:10 add output _25chan52
rid:10 add input _25chan53
rid:11 add output _25chan54
rid:11 add input _25chan55
rid:12 add output _25chan56
rid:12 add input _25chan57
rid:13 add output _25chan58
rid:13 add input _25chan59
rid:14 add output _25chan60
rid:14 add input _25chan61
rid:15 add output _25chan62
rid:15 add input _25chan63
rid:0 add output _25chan64
rid:0 add input _25chan65
rid:1 add output _25chan66
rid:1 add input _25chan67
rid:2 add output _25chan68
rid:2 add input _25chan69
rid:3 add output _25chan70
rid:3 add input _25chan71
rid:4 add output _25chan72
rid:4 add input _25chan73
rid:5 add output _25chan74
rid:5 add input _25chan75
rid:6 add output _25chan76
rid:6 add input _25chan77
rid:7 add output _25chan78
rid:7 add input _25chan79
rid:8 add output _25chan80
rid:8 add input _25chan81
rid:9 add output _25chan82
rid:9 add input _25chan83
rid:10 add output _25chan84
rid:10 add input _25chan85
rid:11 add output _25chan86
rid:11 add input _25chan87
rid:12 add output _25chan88
rid:12 add input _25chan89
rid:13 add output _25chan90
rid:13 add input _25chan91
rid:14 add output _25chan92
rid:14 add input _25chan93
rid:15 add output _25chan94
rid:15 add input _25chan95
rid:0 add output _25chan96
rid:0 add input _25chan97
rid:1 add output _25chan98
rid:1 add input _25chan99
rid:2 add output _25chan100
rid:2 add input _25chan101
rid:3 add output _25chan102
rid:3 add input _25chan103
rid:4 add output _25chan104
rid:4 add input _25chan105
rid:5 add output _25chan106
rid:5 add input _25chan107
rid:6 add output _25chan108
rid:6 add input _25chan109
rid:7 add output _25chan110
rid:7 add input _25chan111
rid:8 add output _25chan112
rid:8 add input _25chan113
rid:9 add output _25chan114
rid:9 add input _25chan115
rid:10 add output _25chan116
rid:10 add input _25chan117
rid:11 add output _25chan118
rid:11 add input _25chan119
rid:12 add output _25chan120
rid:12 add input _25chan121
rid:13 add output _25chan122
rid:13 add input _25chan123
rid:14 add output _25chan124
rid:14 add input _25chan125
rid:15 add output _25chan126
rid:15 add input _25chan127

Tick: 0M
===== Time: 5000 =====
Class 0:
Minimum packet latency = 52
Average packet latency = 414.694
Maximum packet latency = 924
Minimum network latency = 53
Average network latency = 415.483
Maximum network latency = 925
Slowest packet = 578
Minimum flit latency = 53
Average flit latency = 415.483
Maximum flit latency = 925
Slowest flit = 578
Minimum fragmentation = 0
Average fragmentation = 0
Maximum fragmentation = 0
Minimum injected packet rate = 0 (at node 0)
Average injected packet rate = 0.00194063
Maximum injected packet rate = 0.0066 (at node 107)
Minimum accepted packet rate = 0 (at node 0)
Average accepted packet rate = 0.00176563
Maximum accepted packet rate = 0.0058 (at node 115)
Minimum injected flit rate = 0 (at node 0)
Average injected flit rate = 0.00194063
Maximum injected flit rate = 0.0066 (at node 107)
Minimum accepted flit rate = 0 (at node 0)
Average accepted flit rate = 0.00176563
Maximum accepted flit rate = 0.0058 (at node 115)
Total number of injected packets = 1242
Total number of injected flits = 1242
Average injected packet length = 1
Total number of accepted packets = 1130
Total number of accepted flits = 1130
Average accepted packet length = 1
Total in-flight flits = 112 (0 measured)
class 0 latency change    = 1
class 0 throughput change = 1
Warmed up ...Time used is 5000 cycles
===== Time: 10000 =====
Class 0:
Minimum packet latency = 52
Average packet latency = 415.389
Maximum packet latency = 1060
Minimum network latency = 53
Average network latency = 416.135
Maximum network latency = 1061
Slowest packet = 2195
Minimum flit latency = 53
Average flit latency = 425.778
Maximum flit latency = 1061
Slowest flit = 2195
Minimum fragmentation = 0
Average fragmentation = 0
Maximum fragmentation = 0
Minimum injected packet rate = 0 (at node 0)
Average injected packet rate = 0.00200469
Maximum injected packet rate = 0.0062 (at node 89)
Minimum accepted packet rate = 0 (at node 0)
Average accepted packet rate = 0.00199844
Maximum accepted packet rate = 0.006 (at node 84)
Minimum injected flit rate = 0 (at node 0)
Average injected flit rate = 0.00200469
Maximum injected flit rate = 0.0062 (at node 89)
Minimum accepted flit rate = 0 (at node 0)
Average accepted flit rate = 0.00199844
Maximum accepted flit rate = 0.006 (at node 84)
Total number of injected packets = 1283
Total number of injected flits = 1283
Average injected packet length = 1
Total number of accepted packets = 1279
Total number of accepted flits = 1279
Average accepted packet length = 1
Total in-flight flits = 116 (116 measured)
class 0 latency change    = 0.00167368
class 0 throughput change = 0.116497
===== Time: 15000 =====
Class 0:
Minimum packet latency = 52
Average packet latency = 421.484
Maximum packet latency = 1060
Minimum network latency = 53
Average network latency = 422.26
Maximum network latency = 1061
Slowest packet = 2195
Minimum flit latency = 53
Average flit latency = 426.827
Maximum flit latency = 1061
Slowest flit = 2195
Minimum fragmentation = 0
Average fragmentation = 0
Maximum fragmentation = 0
Minimum injected packet rate = 0 (at node 0)
Average injected packet rate = 0.00198203
Maximum injected packet rate = 0.0055 (at node 117)
Minimum accepted packet rate = 0 (at node 0)
Average accepted packet rate = 0.00199219
Maximum accepted packet rate = 0.0057 (at node 113)
Minimum injected flit rate = 0 (at node 0)
Average injected flit rate = 0.00198203
Maximum injected flit rate = 0.0055 (at node 117)
Minimum accepted flit rate = 0 (at node 0)
Average accepted flit rate = 0.00199219
Maximum accepted flit rate = 0.0057 (at node 113)
Total number of injected packets = 2537
Total number of injected flits = 2537
Average injected packet length = 1
Total number of accepted packets = 2550
Total number of accepted flits = 2550
Average accepted packet length = 1
Total in-flight flits = 99 (99 measured)
class 0 latency change    = 0.0144607
class 0 throughput change = 0.00313725
===== Time: 20000 =====
Class 0:
Minimum packet latency = 52
Average packet latency = 421.049
Maximum packet latency = 1060
Minimum network latency = 53
Average network latency = 421.863
Maximum network latency = 1061
Slowest packet = 2195
Minimum flit latency = 53
Average flit latency = 424.946
Maximum flit latency = 1061
Slowest flit = 2195
Minimum fragmentation = 0
Average fragmentation = 0
Maximum fragmentation = 0
Minimum injected packet rate = 0 (at node 0)
Average injected packet rate = 0.00197656
Maximum injected packet rate = 0.00506667 (at node 117)
Minimum accepted packet rate = 0 (at node 0)
Average accepted packet rate = 0.00197552
Maximum accepted packet rate = 0.00526667 (at node 91)
Minimum injected flit rate = 0 (at node 0)
Average injected flit rate = 0.00197656
Maximum injected flit rate = 0.00506667 (at node 117)
Minimum accepted flit rate = 0 (at node 0)
Average accepted flit rate = 0.00197552
Maximum accepted flit rate = 0.00526667 (at node 91)
Total number of injected packets = 3795
Total number of injected flits = 3795
Average injected packet length = 1
Total number of accepted packets = 3793
Total number of accepted flits = 3793
Average accepted packet length = 1
Total in-flight flits = 114 (114 measured)
class 0 latency change    = 0.00103338
class 0 throughput change = 0.00843659
===== Time: 25000 =====
Class 0:
Minimum packet latency = 52
Average packet latency = 420.913
Maximum packet latency = 1060
Minimum network latency = 53
Average network latency = 421.746
Maximum network latency = 1061
Slowest packet = 2195
Minimum flit latency = 53
Average flit latency = 424.055
Maximum flit latency = 1061
Slowest flit = 2195
Minimum fragmentation = 0
Average fragmentation = 0
Maximum fragmentation = 0
Minimum injected packet rate = 0 (at node 0)
Average injected packet rate = 0.00197656
Maximum injected packet rate = 0.005 (at node 117)
Minimum accepted packet rate = 0 (at node 0)
Average accepted packet rate = 0.00197969
Maximum accepted packet rate = 0.00505 (at node 113)
Minimum injected flit rate = 0 (at node 0)
Average injected flit rate = 0.00197656
Maximum injected flit rate = 0.005 (at node 117)
Minimum accepted flit rate = 0 (at node 0)
Average accepted flit rate = 0.00197969
Maximum accepted flit rate = 0.00505 (at node 113)
Total number of injected packets = 5060
Total number of injected flits = 5060
Average injected packet length = 1
Total number of accepted packets = 5068
Total number of accepted flits = 5068
Average accepted packet length = 1
Total in-flight flits = 104 (104 measured)
class 0 latency change    = 0.000322307
class 0 throughput change = 0.00210471
===== Time: 30000 =====
Class 0:
Minimum packet latency = 52
Average packet latency = 419.666
Maximum packet latency = 1060
Minimum network latency = 53
Average network latency = 420.488
Maximum network latency = 1061
Slowest packet = 2195
Minimum flit latency = 53
Average flit latency = 422.347
Maximum flit latency = 1061
Slowest flit = 2195
Minimum fragmentation = 0
Average fragmentation = 0
Maximum fragmentation = 0
Minimum injected packet rate = 0 (at node 0)
Average injected packet rate = 0.00199281
Maximum injected packet rate = 0.00476 (at node 117)
Minimum accepted packet rate = 0 (at node 0)
Average accepted packet rate = 0.00199063
Maximum accepted packet rate = 0.00516 (at node 113)
Minimum injected flit rate = 0 (at node 0)
Average injected flit rate = 0.00199281
Maximum injected flit rate = 0.00476 (at node 117)
Minimum accepted flit rate = 0 (at node 0)
Average accepted flit rate = 0.00199063
Maximum accepted flit rate = 0.00516 (at node 113)
Total number of injected packets = 6377
Total number of injected flits = 6377
Average injected packet length = 1
Total number of accepted packets = 6370
Total number of accepted flits = 6370
Average accepted packet length = 1
Total in-flight flits = 119 (119 measured)
class 0 latency change    = 0.00297267
class 0 throughput change = 0.00549451
===== Time: 35000 =====
Class 0:
Minimum packet latency = 52
Average packet latency = 420.229
Maximum packet latency = 1060
Minimum network latency = 53
Average network latency = 421.033
Maximum network latency = 1061
Slowest packet = 2195
Minimum flit latency = 53
Average flit latency = 422.571
Maximum flit latency = 1061
Slowest flit = 2195
Minimum fragmentation = 0
Average fragmentation = 0
Maximum fragmentation = 0
Minimum injected packet rate = 0 (at node 0)
Average injected packet rate = 0.00199193
Maximum injected packet rate = 0.005 (at node 117)
Minimum accepted packet rate = 0 (at node 0)
Average accepted packet rate = 0.00199531
Maximum accepted packet rate = 0.00483333 (at node 113)
Minimum injected flit rate = 0 (at node 0)
Average injected flit rate = 0.00199193
Maximum injected flit rate = 0.005 (at node 117)
Minimum accepted flit rate = 0 (at node 0)
Average accepted flit rate = 0.00199531
Maximum accepted flit rate = 0.00483333 (at node 113)
Total number of injected packets = 7649
Total number of injected flits = 7649
Average injected packet length = 1
Total number of accepted packets = 7662
Total number of accepted flits = 7662
Average accepted packet length = 1
Total in-flight flits = 99 (99 measured)
class 0 latency change    = 0.00134046
class 0 throughput change = 0.00234926
===== Time: 40000 =====
Class 0:
Minimum packet latency = 52
Average packet latency = 420.161
Maximum packet latency = 1060
Minimum network latency = 53
Average network latency = 420.981
Maximum network latency = 1061
Slowest packet = 2195
Minimum flit latency = 53
Average flit latency = 422.296
Maximum flit latency = 1061
Slowest flit = 2195
Minimum fragmentation = 0
Average fragmentation = 0
Maximum fragmentation = 0
Minimum injected packet rate = 0 (at node 0)
Average injected packet rate = 0.00199844
Maximum injected packet rate = 0.00482857 (at node 117)
Minimum accepted packet rate = 0 (at node 0)
Average accepted packet rate = 0.00200045
Maximum accepted packet rate = 0.0048 (at node 72)
Minimum injected flit rate = 0 (at node 0)
Average injected flit rate = 0.00199844
Maximum injected flit rate = 0.00482857 (at node 117)
Minimum accepted flit rate = 0 (at node 0)
Average accepted flit rate = 0.00200045
Maximum accepted flit rate = 0.0048 (at node 72)
Total number of injected packets = 8953
Total number of injected flits = 8953
Average injected packet length = 1
Total number of accepted packets = 8962
Total number of accepted flits = 8962
Average accepted packet length = 1
Total in-flight flits = 103 (103 measured)
class 0 latency change    = 0.000161011
class 0 throughput change = 0.00256639
===== Time: 45000 =====
Class 0:
Minimum packet latency = 52
Average packet latency = 420.145
Maximum packet latency = 1060
Minimum network latency = 53
Average network latency = 420.97
Maximum network latency = 1061
Slowest packet = 2195
Minimum flit latency = 53
Average flit latency = 422.124
Maximum flit latency = 1061
Slowest flit = 2195
Minimum fragmentation = 0
Average fragmentation = 0
Maximum fragmentation = 0
Minimum injected packet rate = 0 (at node 0)
Average injected packet rate = 0.00199141
Maximum injected packet rate = 0.004775 (at node 117)
Minimum accepted packet rate = 0 (at node 0)
Average accepted packet rate = 0.0019959
Maximum accepted packet rate = 0.004725 (at node 72)
Minimum injected flit rate = 0 (at node 0)
Average injected flit rate = 0.00199141
Maximum injected flit rate = 0.004775 (at node 117)
Minimum accepted flit rate = 0 (at node 0)
Average accepted flit rate = 0.0019959
Maximum accepted flit rate = 0.004725 (at node 72)
Total number of injected packets = 10196
Total number of injected flits = 10196
Average injected packet length = 1
Total number of accepted packets = 10219
Total number of accepted flits = 10219
Average accepted packet length = 1
Total in-flight flits = 89 (89 measured)
class 0 latency change    = 3.9286e-05
class 0 throughput change = 0.00227867
===== Time: 50000 =====
Class 0:
Minimum packet latency = 52
Average packet latency = 420.624
Maximum packet latency = 1060
Minimum network latency = 53
Average network latency = 421.44
Maximum network latency = 1061
Slowest packet = 2195
Minimum flit latency = 53
Average flit latency = 422.459
Maximum flit latency = 1061
Slowest flit = 2195
Minimum fragmentation = 0
Average fragmentation = 0
Maximum fragmentation = 0
Minimum injected packet rate = 0 (at node 0)
Average injected packet rate = 0.00199549
Maximum injected packet rate = 0.00462222 (at node 117)
Minimum accepted packet rate = 0 (at node 0)
Average accepted packet rate = 0.00199965
Maximum accepted packet rate = 0.00486667 (at node 88)
Minimum injected flit rate = 0 (at node 0)
Average injected flit rate = 0.00199549
Maximum injected flit rate = 0.00462222 (at node 117)
Minimum accepted flit rate = 0 (at node 0)
Average accepted flit rate = 0.00199965
Maximum accepted flit rate = 0.00486667 (at node 88)
Total number of injected packets = 11494
Total number of injected flits = 11494
Average injected packet length = 1
Total number of accepted packets = 11518
Total number of accepted flits = 11518
Average accepted packet length = 1
Total in-flight flits = 88 (88 measured)
class 0 latency change    = 0.0011399
class 0 throughput change = 0.0018775
===== Time: 55000 =====
Class 0:
Minimum packet latency = 52
Average packet latency = 420.062
Maximum packet latency = 1060
Minimum network latency = 53
Average network latency = 420.874
Maximum network latency = 1061
Slowest packet = 2195
Minimum flit latency = 53
Average flit latency = 421.797
Maximum flit latency = 1061
Slowest flit = 2195
Minimum fragmentation = 0
Average fragmentation = 0
Maximum fragmentation = 0
Minimum injected packet rate = 0 (at node 0)
Average injected packet rate = 0.00199594
Maximum injected packet rate = 0.00458 (at node 117)
Minimum accepted packet rate = 0 (at node 0)
Average accepted packet rate = 0.00199687
Maximum accepted packet rate = 0.00478 (at node 88)
Minimum injected flit rate = 0 (at node 0)
Average injected flit rate = 0.00199594
Maximum injected flit rate = 0.00458 (at node 117)
Minimum accepted flit rate = 0 (at node 0)
Average accepted flit rate = 0.00199687
Maximum accepted flit rate = 0.00478 (at node 88)
Total number of injected packets = 12774
Total number of injected flits = 12774
Average injected packet length = 1
Total number of accepted packets = 12780
Total number of accepted flits = 12780
Average accepted packet length = 1
Total in-flight flits = 106 (106 measured)
class 0 latency change    = 0.00133817
class 0 throughput change = 0.00139106
Draining remaining packets ...
Time taken is 55665 cycles
====== Traffic class 0 ======

Total number of flits generated = 14016, changed lanes = 0
Overall minimum packet latency = 52 (1 samples)
Overall average packet latency = 420.735 (1 samples)
Overall maximum packet latency = 1060 (1 samples)
Overall minimum network latency = 53 (1 samples)
Overall average network latency = 421.548 (1 samples)
Overall maximum network latency = 1061 (1 samples)
Overall minimum flit latency = 53 (1 samples)
Overall average flit latency = 422.458 (1 samples)
Overall maximum flit latency = 1061 (1 samples)
Overall minimum fragmentation = 0 (1 samples)
Overall average fragmentation = 0 (1 samples)
Overall maximum fragmentation = 0 (1 samples)
Overall minimum injected packet rate = 0 (1 samples)
Overall average injected packet rate = 0.00199594 (1 samples)
Overall maximum injected packet rate = 0.00458 (1 samples)
Overall minimum accepted packet rate = 0 (1 samples)
Overall average accepted packet rate = 0.00199687 (1 samples)
Overall maximum accepted packet rate = 0.00478 (1 samples)
Overall minimum injected flit rate = 0 (1 samples)
Overall average injected flit rate = 0.00199594 (1 samples)
Overall maximum injected flit rate = 0.00458 (1 samples)
Overall minimum accepted flit rate = 0 (1 samples)
Overall average accepted flit rate = 0.00199687 (1 samples)
Overall maximum accepted flit rate = 0.00478 (1 samples)
Overall average injected packet size = 1 (1 samples)
Overall average accepted packet size = 1 (1 samples)
Overall average hops = 7.72147 (1 samples)
Overall throughput of the network (flits/cycle) = 0.28032
Overall throughput of the network (packets/cycle) = 0.28032
CSV Result Header , avgFLat,avgFInjRate
CSV Result ,422.458,0.00199594

Power Report Header, Frequency, Time, StaticIQ, DynamicIQ, StaticVC, DynamicVC, StaticSA, DynamicSA, StaticST, DynamicST, StaticLink, DynamicLink, NoFlits, ePerFlit
Power Report,3.9e+08,55665,0.131875,0.00679847,0.00749762,0.000200852,0.00224928,0.000175685,0.477597,0.00222728,0.0905466,0.00471604,14016,7.37365e-09

*****************************************
Total run time 16.2996
generate:0x7ffe3bf5add0
delete:0x7ffe3bf5add0
L = 2 K = 8.1 M = 2 N = 1
-----------------------------------------
- OCN Power Summary
- Completion Time:         55665
- Flit Widths:            64
- Channel Wire Power:      0.635324
- Channel Clock Power:     1.46183
- Channel Retiming Power:  0.00789355
- Channel Leakage Power:   0.551082
- Input Read Power:        0.0196845
- Input Write Power:       0.0196845
- Input Leakage Power:     0.113246
- Switch Power:            0.0424954
- Switch Control Power:    0.0221003
- Switch Leakage Power:    0.771052
- Output DFF Power:        0.00458783
- Output Clk Power:        0.727126
- Output Control Power:    0.0023677
- Total Power:             4.37847
-----------------------------------------

-----------------------------------------
- OCN Area Summary
- Channel Area:  0.109536
- Switch  Area:  0.241592
- Input  Area:   0.120796
- Output  Area:  0.0201327
- Total Area:    0.492056
-----------------------------------------
CSV Power Result Header , Completion Time, Channel Wire, Channel Clock, Channel Retiming, Channel Leakage, Input Read, Input Write, Input Leakage, Switch Power, Switch Control, Switch Leakage, Output DFF, Output Clk, Output Control
CSV Power Result , 55665, 0.635324, 1.46183, 0.00789355, 0.551082, 0.0196845, 0.0196845, 0.113246, 0.0424954, 0.0221003, 0.771052, 0.00458783, 0.727126, 0.0023677
delete:0x7ffe3bf5add0
delete:0x7ffe3bf5add0
delete:0x7ffe3bf5add0
delete:0x7ffe3bf5add0
delete:0x7ffe3bf5add0
delete:0x7ffe3bf5add0
