generate:0x7fff6bfb4050
generate:0x7fff6bfb4108
generate:0x7fff6bfb41c0
generate:0x7fff6bfb4278
generate:0x7fff6bfb4330
generate:0x7fff6bfb44a0
BEGIN Configuration File: interposer2
//topology
topology = mesh;
k = 8;
n = 2;
type = interposer;
// Routing
routing_function = dor;

// Flow control
num_vcs     = 2;
vc_buf_size = 8;
wait_for_tail_credit = 1;
hold_switch_for_packet = 1;

// Router architecture
vc_allocator = islip;
sw_allocator = islip;
alloc_iters  = 1;

credit_delay   = 0;
routing_delay  = 1;
vc_alloc_delay = 1;
sw_alloc_delay = 1;
st_final_delay = 1;

input_speedup     = 1;
output_speedup    = 1;
internal_speedup  = 1.0;
vc_busy_when_full = 0;


//granulaity
latency_thres=20000.0;
deadlock_warn_timeout=20000;
traceStretch=3;

//gating
doGating=0;
sleepThreshold=40;
breakEvenThreshold=80;



//Syn Traffic
//sim_type=latency;
sim_type=throughput;
traffic=uniform;
packet_size = 1;
sample_period=5000;
warmup_periods=1;
max_samples=11;
injection_rate=0.010;

creditDelays=creditDelays({0,0,0,0,0,0,0,0,0,0,0,0,0,0,0,0,0,0,0,0,0,0,0,0,0,0,0,0,0,0,0,0,0,0,0,0,0,0,0,0,0,0,0,0,0,0,0,0,0,0,0,0,0,0,0,0,0,0,0,0,0,0,0,0}});
routingDelays=routingDelays({15,15,15,15,15,15,15,15,15,15,15,15,15,15,15,15,15,15,15,15,15,15,15,15,15,15,15,15,15,15,15,15,15,15,15,15,15,15,15,15,15,15,15,15,15,15,15,15,15,15,15,15,15,15,15,15,15,15,15,15,15,15,15,15});
vcAllocDelays=vcAllocDelays({15,15,15,15,15,15,15,15,15,15,15,15,15,15,15,15,15,15,15,15,15,15,15,15,15,15,15,15,15,15,15,15,15,15,15,15,15,15,15,15,15,15,15,15,15,15,15,15,15,15,15,15,15,15,15,15,15,15,15,15,15,15,15,15});
swAllocDelays=swAllocDelays({15,15,15,15,15,15,15,15,15,15,15,15,15,15,15,15,15,15,15,15,15,15,15,15,15,15,15,15,15,15,15,15,15,15,15,15,15,15,15,15,15,15,15,15,15,15,15,15,15,15,15,15,15,15,15,15,15,15,15,15,15,15,15,15});
stFinalDelays=stFinalDelays({15,15,15,15,15,15,15,15,15,15,15,15,15,15,15,15,15,15,15,15,15,15,15,15,15,15,15,15,15,15,15,15,15,15,15,15,15,15,15,15,15,15,15,15,15,15,15,15,15,15,15,15,15,15,15,15,15,15,15,15,15,15,15,15});

isAsync=isAsync({1,1,1,1,1,1,1,1,1,1,1,1,1,1,1,1,1,1,1,1,1,1,1,1,1,1,1,1,1,1,1,1,1,1,1,1,1,1,1,1,1,1,1,1,1,1,1,1,1,1,1,1,1,1,1,1,1,1,1,1,1,1,1,1});
isMetaUnstable=isMetaUnstable({0,0,0,0,0,0,0,0,0,0,0,0,0,0,0,0,0,0,0,0,0,0,0,0,0,0,0,0,0,0,0,0,0,0,0,0,0,0,0,0,0,0,0,0,0,0,0,0,0,0,0,0,0,0,0,0,0,0,0,0,0,0,0,0});

creditDelayStdDevs=creditDelayStdDevs({0,0,0,0,0,0,0,0,0,0,0,0,0,0,0,0,0,0,0,0,0,0,0,0,0,0,0,0,0,0,0,0,0,0,0,0,0,0,0,0,0,0,0,0,0,0,0,0,0,0,0,0,0,0,0,0,0,0,0,0,0,0,0,0});
routingDelayStdDevs=routingDelayStdDevs({0,0,0,0,0,0,0,0,0,0,0,0,0,0,0,0,0,0,0,0,0,0,0,0,0,0,0,0,0,0,0,0,0,0,0,0,0,0,0,0,0,0,0,0,0,0,0,0,0,0,0,0,0,0,0,0,0,0,0,0,0,0,0,0});
vcAllocDelayStdDevs=vcAllocDelayStdDevs({0,0,0,0,0,0,0,0,0,0,0,0,0,0,0,0,0,0,0,0,0,0,0,0,0,0,0,0,0,0,0,0,0,0,0,0,0,0,0,0,0,0,0,0,0,0,0,0,0,0,0,0,0,0,0,0,0,0,0,0,0,0,0,0});
swAllocDelayStdDevs=swAllocDelayStdDevs({0,0,0,0,0,0,0,0,0,0,0,0,0,0,0,0,0,0,0,0,0,0,0,0,0,0,0,0,0,0,0,0,0,0,0,0,0,0,0,0,0,0,0,0,0,0,0,0,0,0,0,0,0,0,0,0,0,0,0,0,0,0,0,0});
stFinalDelayStdDevs=stFinalDelayStdDevs({0,0,0,0,0,0,0,0,0,0,0,0,0,0,0,0,0,0,0,0,0,0,0,0,0,0,0,0,0,0,0,0,0,0,0,0,0,0,0,0,0,0,0,0,0,0,0,0,0,0,0,0,0,0,0,0,0,0,0,0,0,0,0,0});

  
swAllocThresholds=swAllocThresholds({1,1,1,1,1,1,1,1,1,1,1,1,1,1,1,1,1,1,1,1,1,1,1,1,1,1,1,1,1,1,1,1,1,1,1,1,1,1,1,1,1,1,1,1,1,1,1,1,1,1,1,1,1,1,1,1,1,1,1,1,1,1,1,1});
swAllocThresholdStdDevs=swAllocThresholdStdDevs({0,0,0,0,0,0,0,0,0,0,0,0,0,0,0,0,0,0,0,0,0,0,0,0,0,0,0,0,0,0,0,0,0,0,0,0,0,0,0,0,0,0,0,0,0,0,0,0,0,0,0,0,0,0,0,0,0,0,0,0,0,0,0,0});
swAllocMetaStableThresholds=swAllocMetaStableThresholds({1,1,1,1,1,1,1,1,1,1,1,1,1,1,1,1,1,1,1,1,1,1,1,1,1,1,1,1,1,1,1,1,1,1,1,1,1,1,1,1,1,1,1,1,1,1,1,1,1,1,1,1,1,1,1,1,1,1,1,1,1,1,1,1});
swAllocMetaStableMaxPenalities=swAllocMetaStableMaxPenalities({0,0,0,0,0,0,0,0,0,0,0,0,0,0,0,0,0,0,0,0,0,0,0,0,0,0,0,0,0,0,0,0,0,0,0,0,0,0,0,0,0,0,0,0,0,0,0,0,0,0,0,0,0,0,0,0,0,0,0,0,0,0,0,0});

END Configuration File: interposer2
BEGIN Configuration File: chip1_1
//topology
topology = mesh;
k = 4;
n = 2;
type = chip;
start_point = 0;
cnum=1;
// Routing
routing_function = dor;

// Flow control
num_vcs     = 2;
vc_buf_size = 8;
wait_for_tail_credit = 1;
hold_switch_for_packet = 1;

// Router architecture
vc_allocator = islip;
sw_allocator = islip;
alloc_iters  = 1;

credit_delay   = 1;
routing_delay  = 1;
vc_alloc_delay = 1;
sw_alloc_delay = 1;
st_final_delay = 1;

input_speedup     = 1;
output_speedup    = 1;
internal_speedup  = 1.0;
vc_busy_when_full = 0;


//granulaity
latency_thres=20000.0;
deadlock_warn_timeout=20000;
traceStretch=3;

//gating
doGating=0;
sleepThreshold=40;
breakEvenThreshold=80;



//Syn Traffic
sim_type=latency;
traffic=uniform;
packet_size = 1;
sample_period=50000;
warmup_periods=1;
max_samples=12;
injection_rate=0.01;

//creditDelays=creditDelays({0,0,0,0,0,0,0,0,0,0,0,0,0,0,0,0});
//routingDelays=routingDelays({1,1,1,1,1,1,1,1,1,1,1,1,1,1,1,1});
//vcAllocDelays=vcAllocDelays({1,1,1,1,1,1,1,1,1,1,1,1,1,1,1,1});
//swAllocDelays=swAllocDelays({1,1,1,1,1,1,1,1,1,1,1,1,1,1,1,1});
//stFinalDelays=stFinalDelays({1,1,1,1,1,1,1,1,1,1,1,1,1,1,1,1});
//channelDelays=channelDelays({1,1,1,1,1,1,1,1,1,1,1,1,1,1,1,1});

creditDelays=creditDelays({0,0,0,0,0,0,0,0,0,0,0,0,0,0,0,0,0,0,0,0,0,0,0,0,0,0,0,0,0,0,0,0,0,0,0,0,0,0,0,0,0,0,0,0,0,0,0,0,0,0,0,0,0,0,0,0,0,0,0,0,0,0,0,0}});
routingDelays=routingDelays({15,15,15,15,15,15,15,15,15,15,15,15,15,15,15,15,15,15,15,15,15,15,15,15,15,15,15,15,15,15,15,15,15,15,15,15,15,15,15,15,15,15,15,15,15,15,15,15,15,15,15,15,15,15,15,15,15,15,15,15,15,15,15,15});
vcAllocDelays=vcAllocDelays({15,15,15,15,15,15,15,15,15,15,15,15,15,15,15,15,15,15,15,15,15,15,15,15,15,15,15,15,15,15,15,15,15,15,15,15,15,15,15,15,15,15,15,15,15,15,15,15,15,15,15,15,15,15,15,15,15,15,15,15,15,15,15,15});
swAllocDelays=swAllocDelays({15,15,15,15,15,15,15,15,15,15,15,15,15,15,15,15,15,15,15,15,15,15,15,15,15,15,15,15,15,15,15,15,15,15,15,15,15,15,15,15,15,15,15,15,15,15,15,15,15,15,15,15,15,15,15,15,15,15,15,15,15,15,15,15});
stFinalDelays=stFinalDelays({15,15,15,15,15,15,15,15,15,15,15,15,15,15,15,15,15,15,15,15,15,15,15,15,15,15,15,15,15,15,15,15,15,15,15,15,15,15,15,15,15,15,15,15,15,15,15,15,15,15,15,15,15,15,15,15,15,15,15,15,15,15,15,15});


isAsync=isAsync({1,1,1,1,1,1,1,1,1,1,1,1,1,1,1,1});
isMetaUnstable=isMetaUnstable({0,0,0,0,0,0,0,0,0,0,0,0,0,0,0,0});

creditDelayStdDevs=creditDelayStdDevs({0,0,0,0,0,0,0,0,0,0,0,0,0,0,0,0});
routingDelayStdDevs=routingDelayStdDevs({0,0,0,0,0,0,0,0,0,0,0,0,0,0,0,0});
vcAllocDelayStdDevs=vcAllocDelayStdDevs({0,0,0,0,0,0,0,0,0,0,0,0,0,0,0,0});
swAllocDelayStdDevs=swAllocDelayStdDevs({0,0,0,0,0,0,0,0,0,0,0,0,0,0,0,0});
stFinalDelayStdDevs=stFinalDelayStdDevs({0,0,0,0,0,0,0,0,0,0,0,0,0,0,0,0});

  
swAllocThresholds=swAllocThresholds({1,1,1,1,1,1,1,1,1,1,1,1,1,1,1,1});
swAllocThresholdStdDevs=swAllocThresholdStdDevs({0,0,0,0,0,0,0,0,0,0,0,0,0,0,0,0});
swAllocMetaStableThresholds=swAllocMetaStableThresholds({1,1,1,1,1,1,1,1,1,1,1,1,1,1,1,1});
swAllocMetaStableMaxPenalities=swAllocMetaStableMaxPenalities({0,0,0,0,0,0,0,0,0,0,0,0,0,0,0,0});

END Configuration File: chip1_1
BEGIN Configuration File: chip2_1
//topology
topology = mesh;
k = 4;
n = 2;
type = chip;
//start_point = 2;
start_point = 4;
cnum = 2;
// Routing
routing_function = dor;

// Flow control
num_vcs     = 2;
vc_buf_size = 8;
wait_for_tail_credit = 1;
hold_switch_for_packet = 1;

// Router architecture
vc_allocator = islip;
sw_allocator = islip;
alloc_iters  = 1;

credit_delay   = 1;
routing_delay  = 1;
vc_alloc_delay = 1;
sw_alloc_delay = 1;
st_final_delay = 1;

input_speedup     = 1;
output_speedup    = 1;
internal_speedup  = 1.0;
vc_busy_when_full = 0;


//granulaity
latency_thres=20000.0;
deadlock_warn_timeout=20000;
traceStretch=3;

//gating
doGating=0;
sleepThreshold=40;
breakEvenThreshold=80;



//Syn Traffic
sim_type=latency;
traffic=uniform;
packet_size = 1;
sample_period=50000;
warmup_periods=3;
max_samples=14;
injection_rate=0.01;

creditDelays=creditDelays({0,0,0,0,0,0,0,0,0,0,0,0,0,0,0,0,0,0,0,0,0,0,0,0,0,0,0,0,0,0,0,0,0,0,0,0,0,0,0,0,0,0,0,0,0,0,0,0,0,0,0,0,0,0,0,0,0,0,0,0,0,0,0,0}});
routingDelays=routingDelays({15,15,15,15,15,15,15,15,15,15,15,15,15,15,15,15,15,15,15,15,15,15,15,15,15,15,15,15,15,15,15,15,15,15,15,15,15,15,15,15,15,15,15,15,15,15,15,15,15,15,15,15,15,15,15,15,15,15,15,15,15,15,15,15});
vcAllocDelays=vcAllocDelays({15,15,15,15,15,15,15,15,15,15,15,15,15,15,15,15,15,15,15,15,15,15,15,15,15,15,15,15,15,15,15,15,15,15,15,15,15,15,15,15,15,15,15,15,15,15,15,15,15,15,15,15,15,15,15,15,15,15,15,15,15,15,15,15});
swAllocDelays=swAllocDelays({15,15,15,15,15,15,15,15,15,15,15,15,15,15,15,15,15,15,15,15,15,15,15,15,15,15,15,15,15,15,15,15,15,15,15,15,15,15,15,15,15,15,15,15,15,15,15,15,15,15,15,15,15,15,15,15,15,15,15,15,15,15,15,15});
stFinalDelays=stFinalDelays({15,15,15,15,15,15,15,15,15,15,15,15,15,15,15,15,15,15,15,15,15,15,15,15,15,15,15,15,15,15,15,15,15,15,15,15,15,15,15,15,15,15,15,15,15,15,15,15,15,15,15,15,15,15,15,15,15,15,15,15,15,15,15,15});


isAsync=isAsync({1,1,1,1,1,1,1,1,1,1,1,1,1,1,1,1});
isMetaUnstable=isMetaUnstable({0,0,0,0,0,0,0,0,0,0,0,0,0,0,0,0});

creditDelayStdDevs=creditDelayStdDevs({0,0,0,0,0,0,0,0,0,0,0,0,0,0,0,0});
routingDelayStdDevs=routingDelayStdDevs({0,0,0,0,0,0,0,0,0,0,0,0,0,0,0,0});
vcAllocDelayStdDevs=vcAllocDelayStdDevs({0,0,0,0,0,0,0,0,0,0,0,0,0,0,0,0});
swAllocDelayStdDevs=swAllocDelayStdDevs({0,0,0,0,0,0,0,0,0,0,0,0,0,0,0,0});
stFinalDelayStdDevs=stFinalDelayStdDevs({0,0,0,0,0,0,0,0,0,0,0,0,0,0,0,0});

  
swAllocThresholds=swAllocThresholds({1,1,1,1,1,1,1,1,1,1,1,1,1,1,1,1});
swAllocThresholdStdDevs=swAllocThresholdStdDevs({0,0,0,0,0,0,0,0,0,0,0,0,0,0,0,0});
swAllocMetaStableThresholds=swAllocMetaStableThresholds({1,1,1,1,1,1,1,1,1,1,1,1,1,1,1,1});
swAllocMetaStableMaxPenalities=swAllocMetaStableMaxPenalities({0,0,0,0,0,0,0,0,0,0,0,0,0,0,0,0});

END Configuration File: chip2_1
BEGIN Configuration File: chip3_1
//topology
topology = mesh;
k = 4;
n = 2;
type = chip;
//start_point = 8;
start_point = 32;
cnum = 3;
// Routing
routing_function = dor;

// Flow control
num_vcs     = 2;
vc_buf_size = 8;
wait_for_tail_credit = 1;
hold_switch_for_packet = 1;

// Router architecture
vc_allocator = islip;
sw_allocator = islip;
alloc_iters  = 1;

credit_delay   = 1;
routing_delay  = 1;
vc_alloc_delay = 1;
sw_alloc_delay = 1;
st_final_delay = 1;

input_speedup     = 1;
output_speedup    = 1;
internal_speedup  = 1.0;
vc_busy_when_full = 0;


//granulaity
latency_thres=20000.0;
deadlock_warn_timeout=20000;
traceStretch=3;

//gating
doGating=0;
sleepThreshold=40;
breakEvenThreshold=80;



//Syn Traffic
sim_type=latency;
traffic=uniform;
packet_size = 1;
sample_period=50000;
warmup_periods=3;
max_samples=14;
injection_rate=0.01;

creditDelays=creditDelays({0,0,0,0,0,0,0,0,0,0,0,0,0,0,0,0,0,0,0,0,0,0,0,0,0,0,0,0,0,0,0,0,0,0,0,0,0,0,0,0,0,0,0,0,0,0,0,0,0,0,0,0,0,0,0,0,0,0,0,0,0,0,0,0}});
routingDelays=routingDelays({15,15,15,15,15,15,15,15,15,15,15,15,15,15,15,15,15,15,15,15,15,15,15,15,15,15,15,15,15,15,15,15,15,15,15,15,15,15,15,15,15,15,15,15,15,15,15,15,15,15,15,15,15,15,15,15,15,15,15,15,15,15,15,15});
vcAllocDelays=vcAllocDelays({15,15,15,15,15,15,15,15,15,15,15,15,15,15,15,15,15,15,15,15,15,15,15,15,15,15,15,15,15,15,15,15,15,15,15,15,15,15,15,15,15,15,15,15,15,15,15,15,15,15,15,15,15,15,15,15,15,15,15,15,15,15,15,15});
swAllocDelays=swAllocDelays({15,15,15,15,15,15,15,15,15,15,15,15,15,15,15,15,15,15,15,15,15,15,15,15,15,15,15,15,15,15,15,15,15,15,15,15,15,15,15,15,15,15,15,15,15,15,15,15,15,15,15,15,15,15,15,15,15,15,15,15,15,15,15,15});
stFinalDelays=stFinalDelays({15,15,15,15,15,15,15,15,15,15,15,15,15,15,15,15,15,15,15,15,15,15,15,15,15,15,15,15,15,15,15,15,15,15,15,15,15,15,15,15,15,15,15,15,15,15,15,15,15,15,15,15,15,15,15,15,15,15,15,15,15,15,15,15});


isAsync=isAsync({1,1,1,1,1,1,1,1,1,1,1,1,1,1,1,1});
isMetaUnstable=isMetaUnstable({0,0,0,0,0,0,0,0,0,0,0,0,0,0,0,0});

creditDelayStdDevs=creditDelayStdDevs({0,0,0,0,0,0,0,0,0,0,0,0,0,0,0,0});
routingDelayStdDevs=routingDelayStdDevs({0,0,0,0,0,0,0,0,0,0,0,0,0,0,0,0});
vcAllocDelayStdDevs=vcAllocDelayStdDevs({0,0,0,0,0,0,0,0,0,0,0,0,0,0,0,0});
swAllocDelayStdDevs=swAllocDelayStdDevs({0,0,0,0,0,0,0,0,0,0,0,0,0,0,0,0});
stFinalDelayStdDevs=stFinalDelayStdDevs({0,0,0,0,0,0,0,0,0,0,0,0,0,0,0,0});

  
swAllocThresholds=swAllocThresholds({1,1,1,1,1,1,1,1,1,1,1,1,1,1,1,1});
swAllocThresholdStdDevs=swAllocThresholdStdDevs({0,0,0,0,0,0,0,0,0,0,0,0,0,0,0,0});
swAllocMetaStableThresholds=swAllocMetaStableThresholds({1,1,1,1,1,1,1,1,1,1,1,1,1,1,1,1});
swAllocMetaStableMaxPenalities=swAllocMetaStableMaxPenalities({0,0,0,0,0,0,0,0,0,0,0,0,0,0,0,0});

END Configuration File: chip3_1
BEGIN Configuration File: chip4_1
//topology
topology = mesh;
k = 4;
n = 2;
type = chip;
//start_point = 10;
start_point = 36;
cnum = 4;
// Routing
routing_function = dor;

// Flow control
num_vcs     = 2;
vc_buf_size = 8;
wait_for_tail_credit = 1;
hold_switch_for_packet = 1;

// Router architecture
vc_allocator = islip;
sw_allocator = islip;
alloc_iters  = 1;

credit_delay   = 1;
routing_delay  = 1;
vc_alloc_delay = 1;
sw_alloc_delay = 1;
st_final_delay = 1;

input_speedup     = 1;
output_speedup    = 1;
internal_speedup  = 1.0;
vc_busy_when_full = 0;


//granulaity
latency_thres=20000.0;
deadlock_warn_timeout=20000;
traceStretch=3;

//gating
doGating=0;
sleepThreshold=40;
breakEvenThreshold=80;



//Syn Traffic
sim_type=latency;
traffic=uniform;
packet_size = 1;
sample_period=50000;
warmup_periods=3;
max_samples=14;
injection_rate=0.01;

creditDelays=creditDelays({0,0,0,0,0,0,0,0,0,0,0,0,0,0,0,0,0,0,0,0,0,0,0,0,0,0,0,0,0,0,0,0,0,0,0,0,0,0,0,0,0,0,0,0,0,0,0,0,0,0,0,0,0,0,0,0,0,0,0,0,0,0,0,0}});
routingDelays=routingDelays({15,15,15,15,15,15,15,15,15,15,15,15,15,15,15,15,15,15,15,15,15,15,15,15,15,15,15,15,15,15,15,15,15,15,15,15,15,15,15,15,15,15,15,15,15,15,15,15,15,15,15,15,15,15,15,15,15,15,15,15,15,15,15,15});
vcAllocDelays=vcAllocDelays({15,15,15,15,15,15,15,15,15,15,15,15,15,15,15,15,15,15,15,15,15,15,15,15,15,15,15,15,15,15,15,15,15,15,15,15,15,15,15,15,15,15,15,15,15,15,15,15,15,15,15,15,15,15,15,15,15,15,15,15,15,15,15,15});
swAllocDelays=swAllocDelays({15,15,15,15,15,15,15,15,15,15,15,15,15,15,15,15,15,15,15,15,15,15,15,15,15,15,15,15,15,15,15,15,15,15,15,15,15,15,15,15,15,15,15,15,15,15,15,15,15,15,15,15,15,15,15,15,15,15,15,15,15,15,15,15});
stFinalDelays=stFinalDelays({15,15,15,15,15,15,15,15,15,15,15,15,15,15,15,15,15,15,15,15,15,15,15,15,15,15,15,15,15,15,15,15,15,15,15,15,15,15,15,15,15,15,15,15,15,15,15,15,15,15,15,15,15,15,15,15,15,15,15,15,15,15,15,15});


isAsync=isAsync({1,1,1,1,1,1,1,1,1,1,1,1,1,1,1,1});
isMetaUnstable=isMetaUnstable({0,0,0,0,0,0,0,0,0,0,0,0,0,0,0,0});

creditDelayStdDevs=creditDelayStdDevs({0,0,0,0,0,0,0,0,0,0,0,0,0,0,0,0});
routingDelayStdDevs=routingDelayStdDevs({0,0,0,0,0,0,0,0,0,0,0,0,0,0,0,0});
vcAllocDelayStdDevs=vcAllocDelayStdDevs({0,0,0,0,0,0,0,0,0,0,0,0,0,0,0,0});
swAllocDelayStdDevs=swAllocDelayStdDevs({0,0,0,0,0,0,0,0,0,0,0,0,0,0,0,0});
stFinalDelayStdDevs=stFinalDelayStdDevs({0,0,0,0,0,0,0,0,0,0,0,0,0,0,0,0});

  
swAllocThresholds=swAllocThresholds({1,1,1,1,1,1,1,1,1,1,1,1,1,1,1,1});
swAllocThresholdStdDevs=swAllocThresholdStdDevs({0,0,0,0,0,0,0,0,0,0,0,0,0,0,0,0});
swAllocMetaStableThresholds=swAllocMetaStableThresholds({1,1,1,1,1,1,1,1,1,1,1,1,1,1,1,1});
swAllocMetaStableMaxPenalities=swAllocMetaStableMaxPenalities({0,0,0,0,0,0,0,0,0,0,0,0,0,0,0,0});

END Configuration File: chip4_1
rid:0 add output _25chan1
rid:0 add input _25chan0
rid:1 add output _25chan3
rid:1 add input _25chan2
rid:2 add output _25chan5
rid:2 add input _25chan4
rid:3 add output _25chan7
rid:3 add input _25chan6
rid:4 add output _25chan33
rid:4 add input _25chan32
rid:5 add output _25chan35
rid:5 add input _25chan34
rid:6 add output _25chan37
rid:6 add input _25chan36
rid:7 add output _25chan39
rid:7 add input _25chan38
rid:8 add output _25chan9
rid:8 add input _25chan8
rid:9 add output _25chan11
rid:9 add input _25chan10
rid:10 add output _25chan13
rid:10 add input _25chan12
rid:11 add output _25chan15
rid:11 add input _25chan14
rid:12 add output _25chan41
rid:12 add input _25chan40
rid:13 add output _25chan43
rid:13 add input _25chan42
rid:14 add output _25chan45
rid:14 add input _25chan44
rid:15 add output _25chan47
rid:15 add input _25chan46
rid:16 add output _25chan17
rid:16 add input _25chan16
rid:17 add output _25chan19
rid:17 add input _25chan18
rid:18 add output _25chan21
rid:18 add input _25chan20
rid:19 add output _25chan23
rid:19 add input _25chan22
rid:20 add output _25chan49
rid:20 add input _25chan48
rid:21 add output _25chan51
rid:21 add input _25chan50
rid:22 add output _25chan53
rid:22 add input _25chan52
rid:23 add output _25chan55
rid:23 add input _25chan54
rid:24 add output _25chan25
rid:24 add input _25chan24
rid:25 add output _25chan27
rid:25 add input _25chan26
rid:26 add output _25chan29
rid:26 add input _25chan28
rid:27 add output _25chan31
rid:27 add input _25chan30
rid:28 add output _25chan57
rid:28 add input _25chan56
rid:29 add output _25chan59
rid:29 add input _25chan58
rid:30 add output _25chan61
rid:30 add input _25chan60
rid:31 add output _25chan63
rid:31 add input _25chan62
rid:32 add output _25chan65
rid:32 add input _25chan64
rid:33 add output _25chan67
rid:33 add input _25chan66
rid:34 add output _25chan69
rid:34 add input _25chan68
rid:35 add output _25chan71
rid:35 add input _25chan70
rid:36 add output _25chan97
rid:36 add input _25chan96
rid:37 add output _25chan99
rid:37 add input _25chan98
rid:38 add output _25chan101
rid:38 add input _25chan100
rid:39 add output _25chan103
rid:39 add input _25chan102
rid:40 add output _25chan73
rid:40 add input _25chan72
rid:41 add output _25chan75
rid:41 add input _25chan74
rid:42 add output _25chan77
rid:42 add input _25chan76
rid:43 add output _25chan79
rid:43 add input _25chan78
rid:44 add output _25chan105
rid:44 add input _25chan104
rid:45 add output _25chan107
rid:45 add input _25chan106
rid:46 add output _25chan109
rid:46 add input _25chan108
rid:47 add output _25chan111
rid:47 add input _25chan110
rid:48 add output _25chan81
rid:48 add input _25chan80
rid:49 add output _25chan83
rid:49 add input _25chan82
rid:50 add output _25chan85
rid:50 add input _25chan84
rid:51 add output _25chan87
rid:51 add input _25chan86
rid:52 add output _25chan113
rid:52 add input _25chan112
rid:53 add output _25chan115
rid:53 add input _25chan114
rid:54 add output _25chan117
rid:54 add input _25chan116
rid:55 add output _25chan119
rid:55 add input _25chan118
rid:56 add output _25chan89
rid:56 add input _25chan88
rid:57 add output _25chan91
rid:57 add input _25chan90
rid:58 add output _25chan93
rid:58 add input _25chan92
rid:59 add output _25chan95
rid:59 add input _25chan94
rid:60 add output _25chan121
rid:60 add input _25chan120
rid:61 add output _25chan123
rid:61 add input _25chan122
rid:62 add output _25chan125
rid:62 add input _25chan124
rid:63 add output _25chan127
rid:63 add input _25chan126
rid:0 add output _25chan0
rid:0 add input _25chan1
rid:1 add output _25chan2
rid:1 add input _25chan3
rid:2 add output _25chan4
rid:2 add input _25chan5
rid:3 add output _25chan6
rid:3 add input _25chan7
rid:4 add output _25chan8
rid:4 add input _25chan9
rid:5 add output _25chan10
rid:5 add input _25chan11
rid:6 add output _25chan12
rid:6 add input _25chan13
rid:7 add output _25chan14
rid:7 add input _25chan15
rid:8 add output _25chan16
rid:8 add input _25chan17
rid:9 add output _25chan18
rid:9 add input _25chan19
rid:10 add output _25chan20
rid:10 add input _25chan21
rid:11 add output _25chan22
rid:11 add input _25chan23
rid:12 add output _25chan24
rid:12 add input _25chan25
rid:13 add output _25chan26
rid:13 add input _25chan27
rid:14 add output _25chan28
rid:14 add input _25chan29
rid:15 add output _25chan30
rid:15 add input _25chan31
rid:0 add output _25chan32
rid:0 add input _25chan33
rid:1 add output _25chan34
rid:1 add input _25chan35
rid:2 add output _25chan36
rid:2 add input _25chan37
rid:3 add output _25chan38
rid:3 add input _25chan39
rid:4 add output _25chan40
rid:4 add input _25chan41
rid:5 add output _25chan42
rid:5 add input _25chan43
rid:6 add output _25chan44
rid:6 add input _25chan45
rid:7 add output _25chan46
rid:7 add input _25chan47
rid:8 add output _25chan48
rid:8 add input _25chan49
rid:9 add output _25chan50
rid:9 add input _25chan51
rid:10 add output _25chan52
rid:10 add input _25chan53
rid:11 add output _25chan54
rid:11 add input _25chan55
rid:12 add output _25chan56
rid:12 add input _25chan57
rid:13 add output _25chan58
rid:13 add input _25chan59
rid:14 add output _25chan60
rid:14 add input _25chan61
rid:15 add output _25chan62
rid:15 add input _25chan63
rid:0 add output _25chan64
rid:0 add input _25chan65
rid:1 add output _25chan66
rid:1 add input _25chan67
rid:2 add output _25chan68
rid:2 add input _25chan69
rid:3 add output _25chan70
rid:3 add input _25chan71
rid:4 add output _25chan72
rid:4 add input _25chan73
rid:5 add output _25chan74
rid:5 add input _25chan75
rid:6 add output _25chan76
rid:6 add input _25chan77
rid:7 add output _25chan78
rid:7 add input _25chan79
rid:8 add output _25chan80
rid:8 add input _25chan81
rid:9 add output _25chan82
rid:9 add input _25chan83
rid:10 add output _25chan84
rid:10 add input _25chan85
rid:11 add output _25chan86
rid:11 add input _25chan87
rid:12 add output _25chan88
rid:12 add input _25chan89
rid:13 add output _25chan90
rid:13 add input _25chan91
rid:14 add output _25chan92
rid:14 add input _25chan93
rid:15 add output _25chan94
rid:15 add input _25chan95
rid:0 add output _25chan96
rid:0 add input _25chan97
rid:1 add output _25chan98
rid:1 add input _25chan99
rid:2 add output _25chan100
rid:2 add input _25chan101
rid:3 add output _25chan102
rid:3 add input _25chan103
rid:4 add output _25chan104
rid:4 add input _25chan105
rid:5 add output _25chan106
rid:5 add input _25chan107
rid:6 add output _25chan108
rid:6 add input _25chan109
rid:7 add output _25chan110
rid:7 add input _25chan111
rid:8 add output _25chan112
rid:8 add input _25chan113
rid:9 add output _25chan114
rid:9 add input _25chan115
rid:10 add output _25chan116
rid:10 add input _25chan117
rid:11 add output _25chan118
rid:11 add input _25chan119
rid:12 add output _25chan120
rid:12 add input _25chan121
rid:13 add output _25chan122
rid:13 add input _25chan123
rid:14 add output _25chan124
rid:14 add input _25chan125
rid:15 add output _25chan126
rid:15 add input _25chan127

Tick: 0M
===== Time: 5000 =====
Class 0:
Minimum packet latency = 62
Average packet latency = 935.186
Maximum packet latency = 4221
Minimum network latency = 63
Average network latency = 825.665
Maximum network latency = 4194
Slowest packet = 430
Minimum flit latency = 63
Average flit latency = 825.665
Maximum flit latency = 4194
Slowest flit = 430
Minimum fragmentation = 0
Average fragmentation = 0
Maximum fragmentation = 0
Minimum injected packet rate = 0 (at node 0)
Average injected packet rate = 0.0039875
Maximum injected packet rate = 0.0116 (at node 67)
Minimum accepted packet rate = 0 (at node 0)
Average accepted packet rate = 0.0032
Maximum accepted packet rate = 0.009 (at node 115)
Minimum injected flit rate = 0 (at node 0)
Average injected flit rate = 0.0039875
Maximum injected flit rate = 0.0116 (at node 67)
Minimum accepted flit rate = 0 (at node 0)
Average accepted flit rate = 0.0032
Maximum accepted flit rate = 0.009 (at node 115)
Total number of injected packets = 2552
Total number of injected flits = 2552
Average injected packet length = 1
Total number of accepted packets = 2048
Total number of accepted flits = 2048
Average accepted packet length = 1
Total in-flight flits = 556 (0 measured)
class 0 latency change    = 1
class 0 throughput change = 1
Warmed up ...Time used is 5000 cycles
===== Time: 10000 =====
Class 0:
Minimum packet latency = 62
Average packet latency = 1936.56
Maximum packet latency = 7037
Minimum network latency = 63
Average network latency = 938.436
Maximum network latency = 4451
Slowest packet = 2608
Minimum flit latency = 63
Average flit latency = 1162.79
Maximum flit latency = 6046
Slowest flit = 1499
Minimum fragmentation = 0
Average fragmentation = 0
Maximum fragmentation = 0
Minimum injected packet rate = 0 (at node 0)
Average injected packet rate = 0.00330469
Maximum injected packet rate = 0.012 (at node 124)
Minimum accepted packet rate = 0 (at node 0)
Average accepted packet rate = 0.00335
Maximum accepted packet rate = 0.0104 (at node 104)
Minimum injected flit rate = 0 (at node 0)
Average injected flit rate = 0.00330469
Maximum injected flit rate = 0.012 (at node 124)
Minimum accepted flit rate = 0 (at node 0)
Average accepted flit rate = 0.00335
Maximum accepted flit rate = 0.0104 (at node 104)
Total number of injected packets = 2115
Total number of injected flits = 2115
Average injected packet length = 1
Total number of accepted packets = 2144
Total number of accepted flits = 2144
Average accepted packet length = 1
Total in-flight flits = 524 (523 measured)
class 0 latency change    = 0.517089
class 0 throughput change = 0.0447761
===== Time: 15000 =====
Class 0:
Minimum packet latency = 62
Average packet latency = 2718.54
Maximum packet latency = 11429
Minimum network latency = 63
Average network latency = 1064.71
Maximum network latency = 6498
Slowest packet = 2608
Minimum flit latency = 63
Average flit latency = 1162.49
Maximum flit latency = 6498
Slowest flit = 2962
Minimum fragmentation = 0
Average fragmentation = 0
Maximum fragmentation = 0
Minimum injected packet rate = 0 (at node 0)
Average injected packet rate = 0.00329687
Maximum injected packet rate = 0.0103 (at node 84)
Minimum accepted packet rate = 0 (at node 0)
Average accepted packet rate = 0.00331484
Maximum accepted packet rate = 0.0087 (at node 113)
Minimum injected flit rate = 0 (at node 0)
Average injected flit rate = 0.00329687
Maximum injected flit rate = 0.0103 (at node 84)
Minimum accepted flit rate = 0 (at node 0)
Average accepted flit rate = 0.00331484
Maximum accepted flit rate = 0.0087 (at node 113)
Total number of injected packets = 4220
Total number of injected flits = 4220
Average injected packet length = 1
Total number of accepted packets = 4243
Total number of accepted flits = 4243
Average accepted packet length = 1
Total in-flight flits = 530 (530 measured)
class 0 latency change    = 0.287648
class 0 throughput change = 0.0106057
===== Time: 20000 =====
Class 0:
Minimum packet latency = 62
Average packet latency = 3395.68
Maximum packet latency = 14929
Minimum network latency = 63
Average network latency = 1090.7
Maximum network latency = 6498
Slowest packet = 2608
Minimum flit latency = 63
Average flit latency = 1153.16
Maximum flit latency = 6498
Slowest flit = 2962
Minimum fragmentation = 0
Average fragmentation = 0
Maximum fragmentation = 0
Minimum injected packet rate = 0 (at node 0)
Average injected packet rate = 0.0033375
Maximum injected packet rate = 0.0106667 (at node 71)
Minimum accepted packet rate = 0 (at node 0)
Average accepted packet rate = 0.00333906
Maximum accepted packet rate = 0.0082 (at node 113)
Minimum injected flit rate = 0 (at node 0)
Average injected flit rate = 0.0033375
Maximum injected flit rate = 0.0106667 (at node 71)
Minimum accepted flit rate = 0 (at node 0)
Average accepted flit rate = 0.00333906
Maximum accepted flit rate = 0.0082 (at node 113)
Total number of injected packets = 6408
Total number of injected flits = 6408
Average injected packet length = 1
Total number of accepted packets = 6411
Total number of accepted flits = 6411
Average accepted packet length = 1
Total in-flight flits = 554 (554 measured)
class 0 latency change    = 0.199412
class 0 throughput change = 0.00725316
===== Time: 25000 =====
Class 0:
Minimum packet latency = 62
Average packet latency = 3969.26
Maximum packet latency = 18387
Minimum network latency = 63
Average network latency = 1121.73
Maximum network latency = 6702
Slowest packet = 2608
Minimum flit latency = 63
Average flit latency = 1166.86
Maximum flit latency = 6702
Slowest flit = 7775
Minimum fragmentation = 0
Average fragmentation = 0
Maximum fragmentation = 0
Minimum injected packet rate = 0 (at node 0)
Average injected packet rate = 0.0033168
Maximum injected packet rate = 0.0109 (at node 71)
Minimum accepted packet rate = 0 (at node 0)
Average accepted packet rate = 0.00331719
Maximum accepted packet rate = 0.0079 (at node 113)
Minimum injected flit rate = 0 (at node 0)
Average injected flit rate = 0.0033168
Maximum injected flit rate = 0.0109 (at node 71)
Minimum accepted flit rate = 0 (at node 0)
Average accepted flit rate = 0.00331719
Maximum accepted flit rate = 0.0079 (at node 113)
Total number of injected packets = 8491
Total number of injected flits = 8491
Average injected packet length = 1
Total number of accepted packets = 8492
Total number of accepted flits = 8492
Average accepted packet length = 1
Total in-flight flits = 559 (559 measured)
class 0 latency change    = 0.144506
class 0 throughput change = 0.00659444
===== Time: 30000 =====
Class 0:
Minimum packet latency = 62
Average packet latency = 4589.82
Maximum packet latency = 21011
Minimum network latency = 63
Average network latency = 1132.49
Maximum network latency = 6702
Slowest packet = 2608
Minimum flit latency = 63
Average flit latency = 1167.93
Maximum flit latency = 6702
Slowest flit = 7775
Minimum fragmentation = 0
Average fragmentation = 0
Maximum fragmentation = 0
Minimum injected packet rate = 0 (at node 0)
Average injected packet rate = 0.00332937
Maximum injected packet rate = 0.0108 (at node 71)
Minimum accepted packet rate = 0 (at node 0)
Average accepted packet rate = 0.00332563
Maximum accepted packet rate = 0.00796 (at node 88)
Minimum injected flit rate = 0 (at node 0)
Average injected flit rate = 0.00332937
Maximum injected flit rate = 0.0108 (at node 71)
Minimum accepted flit rate = 0 (at node 0)
Average accepted flit rate = 0.00332563
Maximum accepted flit rate = 0.00796 (at node 88)
Total number of injected packets = 10654
Total number of injected flits = 10654
Average injected packet length = 1
Total number of accepted packets = 10642
Total number of accepted flits = 10642
Average accepted packet length = 1
Total in-flight flits = 572 (572 measured)
class 0 latency change    = 0.135202
class 0 throughput change = 0.00253712
===== Time: 35000 =====
Class 0:
Minimum packet latency = 62
Average packet latency = 5214.1
Maximum packet latency = 23474
Minimum network latency = 63
Average network latency = 1144.23
Maximum network latency = 6702
Slowest packet = 2608
Minimum flit latency = 63
Average flit latency = 1173.24
Maximum flit latency = 6702
Slowest flit = 7775
Minimum fragmentation = 0
Average fragmentation = 0
Maximum fragmentation = 0
Minimum injected packet rate = 0 (at node 0)
Average injected packet rate = 0.00333255
Maximum injected packet rate = 0.0104333 (at node 71)
Minimum accepted packet rate = 0 (at node 0)
Average accepted packet rate = 0.00332734
Maximum accepted packet rate = 0.00793333 (at node 88)
Minimum injected flit rate = 0 (at node 0)
Average injected flit rate = 0.00333255
Maximum injected flit rate = 0.0104333 (at node 71)
Minimum accepted flit rate = 0 (at node 0)
Average accepted flit rate = 0.00332734
Maximum accepted flit rate = 0.00793333 (at node 88)
Total number of injected packets = 12797
Total number of injected flits = 12797
Average injected packet length = 1
Total number of accepted packets = 12777
Total number of accepted flits = 12777
Average accepted packet length = 1
Total in-flight flits = 581 (581 measured)
class 0 latency change    = 0.119729
class 0 throughput change = 0.000516553
===== Time: 40000 =====
Class 0:
Minimum packet latency = 62
Average packet latency = 5775.66
Maximum packet latency = 27479
Minimum network latency = 63
Average network latency = 1149.17
Maximum network latency = 6702
Slowest packet = 2608
Minimum flit latency = 63
Average flit latency = 1173.73
Maximum flit latency = 6702
Slowest flit = 7775
Minimum fragmentation = 0
Average fragmentation = 0
Maximum fragmentation = 0
Minimum injected packet rate = 0 (at node 0)
Average injected packet rate = 0.00334442
Maximum injected packet rate = 0.0106857 (at node 75)
Minimum accepted packet rate = 0 (at node 0)
Average accepted packet rate = 0.00334442
Maximum accepted packet rate = 0.00757143 (at node 75)
Minimum injected flit rate = 0 (at node 0)
Average injected flit rate = 0.00334442
Maximum injected flit rate = 0.0106857 (at node 75)
Minimum accepted flit rate = 0 (at node 0)
Average accepted flit rate = 0.00334442
Maximum accepted flit rate = 0.00757143 (at node 75)
Total number of injected packets = 14983
Total number of injected flits = 14983
Average injected packet length = 1
Total number of accepted packets = 14983
Total number of accepted flits = 14983
Average accepted packet length = 1
Total in-flight flits = 562 (562 measured)
class 0 latency change    = 0.0972297
class 0 throughput change = 0.00510579
===== Time: 45000 =====
Class 0:
Minimum packet latency = 62
Average packet latency = 6337.89
Maximum packet latency = 30883
Minimum network latency = 63
Average network latency = 1152.63
Maximum network latency = 6702
Slowest packet = 2608
Minimum flit latency = 63
Average flit latency = 1173.95
Maximum flit latency = 6702
Slowest flit = 7775
Minimum fragmentation = 0
Average fragmentation = 0
Maximum fragmentation = 0
Minimum injected packet rate = 0 (at node 0)
Average injected packet rate = 0.00335156
Maximum injected packet rate = 0.0107 (at node 88)
Minimum accepted packet rate = 0 (at node 0)
Average accepted packet rate = 0.00335273
Maximum accepted packet rate = 0.0076 (at node 80)
Minimum injected flit rate = 0 (at node 0)
Average injected flit rate = 0.00335156
Maximum injected flit rate = 0.0107 (at node 88)
Minimum accepted flit rate = 0 (at node 0)
Average accepted flit rate = 0.00335273
Maximum accepted flit rate = 0.0076 (at node 80)
Total number of injected packets = 17160
Total number of injected flits = 17160
Average injected packet length = 1
Total number of accepted packets = 17166
Total number of accepted flits = 17166
Average accepted packet length = 1
Total in-flight flits = 551 (551 measured)
class 0 latency change    = 0.0887096
class 0 throughput change = 0.00247999
===== Time: 50000 =====
Class 0:
Minimum packet latency = 62
Average packet latency = 6934.41
Maximum packet latency = 33736
Minimum network latency = 63
Average network latency = 1152.96
Maximum network latency = 6702
Slowest packet = 2608
Minimum flit latency = 63
Average flit latency = 1171.89
Maximum flit latency = 6702
Slowest flit = 7775
Minimum fragmentation = 0
Average fragmentation = 0
Maximum fragmentation = 0
Minimum injected packet rate = 0 (at node 0)
Average injected packet rate = 0.00335278
Maximum injected packet rate = 0.0108667 (at node 71)
Minimum accepted packet rate = 0 (at node 0)
Average accepted packet rate = 0.00335538
Maximum accepted packet rate = 0.00755556 (at node 102)
Minimum injected flit rate = 0 (at node 0)
Average injected flit rate = 0.00335278
Maximum injected flit rate = 0.0108667 (at node 71)
Minimum accepted flit rate = 0 (at node 0)
Average accepted flit rate = 0.00335538
Maximum accepted flit rate = 0.00755556 (at node 102)
Total number of injected packets = 19312
Total number of injected flits = 19312
Average injected packet length = 1
Total number of accepted packets = 19327
Total number of accepted flits = 19327
Average accepted packet length = 1
Total in-flight flits = 541 (541 measured)
class 0 latency change    = 0.0860226
class 0 throughput change = 0.000789052
===== Time: 55000 =====
Class 0:
Minimum packet latency = 62
Average packet latency = 7579.97
Maximum packet latency = 36023
Minimum network latency = 63
Average network latency = 1153.11
Maximum network latency = 6702
Slowest packet = 2608
Minimum flit latency = 63
Average flit latency = 1170.09
Maximum flit latency = 6702
Slowest flit = 7775
Minimum fragmentation = 0
Average fragmentation = 0
Maximum fragmentation = 0
Minimum injected packet rate = 0 (at node 0)
Average injected packet rate = 0.00336234
Maximum injected packet rate = 0.01072 (at node 71)
Minimum accepted packet rate = 0 (at node 0)
Average accepted packet rate = 0.00336609
Maximum accepted packet rate = 0.00742 (at node 72)
Minimum injected flit rate = 0 (at node 0)
Average injected flit rate = 0.00336234
Maximum injected flit rate = 0.01072 (at node 71)
Minimum accepted flit rate = 0 (at node 0)
Average accepted flit rate = 0.00336609
Maximum accepted flit rate = 0.00742 (at node 72)
Total number of injected packets = 21519
Total number of injected flits = 21519
Average injected packet length = 1
Total number of accepted packets = 21543
Total number of accepted flits = 21543
Average accepted packet length = 1
Total in-flight flits = 532 (532 measured)
class 0 latency change    = 0.085167
class 0 throughput change = 0.00318227
Draining remaining packets ...
Class 0:
Remaining flits: 22393 22530 22537 22584 22613 22644 22691 22807 22832 22874 [...] (189 flits)
Measured flits: 22393 22530 22537 22584 22613 22644 22691 22807 22832 22874 [...] (189 flits)
Class 0:
Remaining flits: 23013 23474 23475 23532 23542 23583 23634 23678 23707 23849 [...] (16 flits)
Measured flits: 23013 23474 23475 23532 23542 23583 23634 23678 23707 23849 [...] (16 flits)
Time taken is 57511 cycles
====== Traffic class 0 ======

Total number of flits generated = 24123, changed lanes = 0
Overall minimum packet latency = 62 (1 samples)
Overall average packet latency = 7873.91 (1 samples)
Overall maximum packet latency = 37989 (1 samples)
Overall minimum network latency = 63 (1 samples)
Overall average network latency = 1165.71 (1 samples)
Overall maximum network latency = 6702 (1 samples)
Overall minimum flit latency = 63 (1 samples)
Overall average flit latency = 1181.96 (1 samples)
Overall maximum flit latency = 6702 (1 samples)
Overall minimum fragmentation = 0 (1 samples)
Overall average fragmentation = 0 (1 samples)
Overall maximum fragmentation = 0 (1 samples)
Overall minimum injected packet rate = 0 (1 samples)
Overall average injected packet rate = 0.00336234 (1 samples)
Overall maximum injected packet rate = 0.01072 (1 samples)
Overall minimum accepted packet rate = 0 (1 samples)
Overall average accepted packet rate = 0.00336609 (1 samples)
Overall maximum accepted packet rate = 0.00742 (1 samples)
Overall minimum injected flit rate = 0 (1 samples)
Overall average injected flit rate = 0.00336234 (1 samples)
Overall maximum injected flit rate = 0.01072 (1 samples)
Overall minimum accepted flit rate = 0 (1 samples)
Overall average accepted flit rate = 0.00336609 (1 samples)
Overall maximum accepted flit rate = 0.00742 (1 samples)
Overall average injected packet size = 1 (1 samples)
Overall average accepted packet size = 1 (1 samples)
Overall average hops = 7.55449 (1 samples)
Overall throughput of the network (flits/cycle) = 0.48246
Overall throughput of the network (packets/cycle) = 0.48246
CSV Result Header , avgFLat,avgFInjRate
CSV Result ,1181.96,0.00336234

Power Report Header, Frequency, Time, StaticIQ, DynamicIQ, StaticVC, DynamicVC, StaticSA, DynamicSA, StaticST, DynamicST, StaticLink, DynamicLink, NoFlits, ePerFlit
Power Report,3.9e+08,57511,0.131875,0.0109853,0.00749762,0.000321854,0.00224928,0.000287284,0.477597,0.00363803,0.0905466,0.00757723,24123,4.4802e-09

*****************************************
Total run time 25.8406
generate:0x7fff6bfb3ac0
delete:0x7fff6bfb3ac0
L = 2 K = 8.1 M = 2 N = 1
-----------------------------------------
- OCN Power Summary
- Completion Time:         57511
- Flit Widths:            64
- Channel Wire Power:      1.02077
- Channel Clock Power:     1.46183
- Channel Retiming Power:  0.0126825
- Channel Leakage Power:   0.551082
- Input Read Power:        0.031807
- Input Write Power:       0.031807
- Input Leakage Power:     0.113246
- Switch Power:            0.0688157
- Switch Control Power:    0.0357106
- Switch Leakage Power:    0.771052
- Output DFF Power:        0.0074132
- Output Clk Power:        0.727126
- Output Control Power:    0.00382583
- Total Power:             4.83716
-----------------------------------------

-----------------------------------------
- OCN Area Summary
- Channel Area:  0.109536
- Switch  Area:  0.241592
- Input  Area:   0.120796
- Output  Area:  0.0201327
- Total Area:    0.492056
-----------------------------------------
CSV Power Result Header , Completion Time, Channel Wire, Channel Clock, Channel Retiming, Channel Leakage, Input Read, Input Write, Input Leakage, Switch Power, Switch Control, Switch Leakage, Output DFF, Output Clk, Output Control
CSV Power Result , 57511, 1.02077, 1.46183, 0.0126825, 0.551082, 0.031807, 0.031807, 0.113246, 0.0688157, 0.0357106, 0.771052, 0.0074132, 0.727126, 0.00382583
delete:0x7fff6bfb3ac0
delete:0x7fff6bfb3ac0
delete:0x7fff6bfb3ac0
delete:0x7fff6bfb3ac0
delete:0x7fff6bfb3ac0
delete:0x7fff6bfb3ac0
