generate:0x7fffe5ee4410
generate:0x7fffe5ee44c8
generate:0x7fffe5ee4580
generate:0x7fffe5ee4638
generate:0x7fffe5ee46f0
generate:0x7fffe5ee4860
BEGIN Configuration File: interposer1
//topology
topology = mesh;
k = 8;
n = 2;
type = interposer;
// Routing
routing_function = dor;

// Flow control
num_vcs     = 2;
vc_buf_size = 8;
wait_for_tail_credit = 1;
hold_switch_for_packet = 1;

// Router architecture
vc_allocator = islip;
sw_allocator = islip;
alloc_iters  = 1;

credit_delay   = 0;
routing_delay  = 1;
vc_alloc_delay = 1;
sw_alloc_delay = 1;
st_final_delay = 1;

input_speedup     = 1;
output_speedup    = 1;
internal_speedup  = 1.0;
vc_busy_when_full = 0;


//granulaity
latency_thres=20000.0;
deadlock_warn_timeout=20000;
traceStretch=3;

//gating
doGating=0;
sleepThreshold=40;
breakEvenThreshold=80;



//Syn Traffic
//sim_type=latency;
sim_type=throughput;
traffic=uniform;
packet_size = 1;
sample_period=5000;
warmup_periods=1;
max_samples=11;
injection_rate=0.002;

creditDelays=creditDelays({0,0,0,0,0,0,0,0,0,0,0,0,0,0,0,0,0,0,0,0,0,0,0,0,0,0,0,0,0,0,0,0,0,0,0,0,0,0,0,0,0,0,0,0,0,0,0,0,0,0,0,0,0,0,0,0,0,0,0,0,0,0,0,0}});
routingDelays=routingDelays({13,13,13,13,13,13,13,13,13,13,13,13,13,13,13,13,13,13,13,13,13,13,13,13,13,13,13,13,13,13,13,13,13,13,13,13,13,13,13,13,13,13,13,13,13,13,13,13,13,13,13,13,13,13,13,13,13,13,13,13,13,13,13,13});
vcAllocDelays=vcAllocDelays({10,10,10,10,10,10,10,10,10,10,10,10,10,10,10,10,10,10,10,10,10,10,10,10,10,10,10,10,10,10,10,10,10,10,10,10,10,10,10,10,10,10,10,10,10,10,10,10,10,10,10,10,10,10,10,10,10,10,10,10,10,10,10,10});
swAllocDelays=swAllocDelays({15,15,15,15,15,15,15,15,15,15,15,15,15,15,15,15,15,15,15,15,15,15,15,15,15,15,15,15,15,15,15,15,15,15,15,15,15,15,15,15,15,15,15,15,15,15,15,15,15,15,15,15,15,15,15,15,15,15,15,15,15,15,15,15});
stFinalDelays=stFinalDelays({12,12,12,12,12,12,12,12,12,12,12,12,12,12,12,12,12,12,12,12,12,12,12,12,12,12,12,12,12,12,12,12,12,12,12,12,12,12,12,12,12,12,12,12,12,12,12,12,12,12,12,12,12,12,12,12,12,12,12,12,12,12,12,12});
//channelDelays=channelDelays({1,1,1,1,1,1,1,1,1,1,1,1,1,1,1,1,1,1,1,1,1,1,1,1,1,1,1,1,1,1,1,1,1,1,1,1,1,1,1,1,1,1,1,1,1,1,1,1,1,1,1,1,1,1,1,1,1,1,1,1,1,1,1,1});

isAsync=isAsync({1,1,1,1,1,1,1,1,1,1,1,1,1,1,1,1,1,1,1,1,1,1,1,1,1,1,1,1,1,1,1,1,1,1,1,1,1,1,1,1,1,1,1,1,1,1,1,1,1,1,1,1,1,1,1,1,1,1,1,1,1,1,1,1});
isMetaUnstable=isMetaUnstable({0,0,0,0,0,0,0,0,0,0,0,0,0,0,0,0,0,0,0,0,0,0,0,0,0,0,0,0,0,0,0,0,0,0,0,0,0,0,0,0,0,0,0,0,0,0,0,0,0,0,0,0,0,0,0,0,0,0,0,0,0,0,0,0});

creditDelayStdDevs=creditDelayStdDevs({0,0,0,0,0,0,0,0,0,0,0,0,0,0,0,0,0,0,0,0,0,0,0,0,0,0,0,0,0,0,0,0,0,0,0,0,0,0,0,0,0,0,0,0,0,0,0,0,0,0,0,0,0,0,0,0,0,0,0,0,0,0,0,0});
routingDelayStdDevs=routingDelayStdDevs({0,0,0,0,0,0,0,0,0,0,0,0,0,0,0,0,0,0,0,0,0,0,0,0,0,0,0,0,0,0,0,0,0,0,0,0,0,0,0,0,0,0,0,0,0,0,0,0,0,0,0,0,0,0,0,0,0,0,0,0,0,0,0,0});
vcAllocDelayStdDevs=vcAllocDelayStdDevs({0,0,0,0,0,0,0,0,0,0,0,0,0,0,0,0,0,0,0,0,0,0,0,0,0,0,0,0,0,0,0,0,0,0,0,0,0,0,0,0,0,0,0,0,0,0,0,0,0,0,0,0,0,0,0,0,0,0,0,0,0,0,0,0});
swAllocDelayStdDevs=swAllocDelayStdDevs({0,0,0,0,0,0,0,0,0,0,0,0,0,0,0,0,0,0,0,0,0,0,0,0,0,0,0,0,0,0,0,0,0,0,0,0,0,0,0,0,0,0,0,0,0,0,0,0,0,0,0,0,0,0,0,0,0,0,0,0,0,0,0,0});
stFinalDelayStdDevs=stFinalDelayStdDevs({0,0,0,0,0,0,0,0,0,0,0,0,0,0,0,0,0,0,0,0,0,0,0,0,0,0,0,0,0,0,0,0,0,0,0,0,0,0,0,0,0,0,0,0,0,0,0,0,0,0,0,0,0,0,0,0,0,0,0,0,0,0,0,0});

  
swAllocThresholds=swAllocThresholds({1,1,1,1,1,1,1,1,1,1,1,1,1,1,1,1,1,1,1,1,1,1,1,1,1,1,1,1,1,1,1,1,1,1,1,1,1,1,1,1,1,1,1,1,1,1,1,1,1,1,1,1,1,1,1,1,1,1,1,1,1,1,1,1});
swAllocThresholdStdDevs=swAllocThresholdStdDevs({0,0,0,0,0,0,0,0,0,0,0,0,0,0,0,0,0,0,0,0,0,0,0,0,0,0,0,0,0,0,0,0,0,0,0,0,0,0,0,0,0,0,0,0,0,0,0,0,0,0,0,0,0,0,0,0,0,0,0,0,0,0,0,0});
swAllocMetaStableThresholds=swAllocMetaStableThresholds({1,1,1,1,1,1,1,1,1,1,1,1,1,1,1,1,1,1,1,1,1,1,1,1,1,1,1,1,1,1,1,1,1,1,1,1,1,1,1,1,1,1,1,1,1,1,1,1,1,1,1,1,1,1,1,1,1,1,1,1,1,1,1,1});
swAllocMetaStableMaxPenalities=swAllocMetaStableMaxPenalities({0,0,0,0,0,0,0,0,0,0,0,0,0,0,0,0,0,0,0,0,0,0,0,0,0,0,0,0,0,0,0,0,0,0,0,0,0,0,0,0,0,0,0,0,0,0,0,0,0,0,0,0,0,0,0,0,0,0,0,0,0,0,0,0});

END Configuration File: interposer1
BEGIN Configuration File: chip1
//topology
topology = mesh;
k = 4;
n = 2;
type = chip;
start_point = 0;
cnum=1;
// Routing
routing_function = dor;

// Flow control
num_vcs     = 2;
vc_buf_size = 8;
wait_for_tail_credit = 1;
hold_switch_for_packet = 1;

// Router architecture
vc_allocator = islip;
sw_allocator = islip;
alloc_iters  = 1;

credit_delay   = 0;
routing_delay  = 1;
vc_alloc_delay = 1;
sw_alloc_delay = 1;
st_final_delay = 1;

input_speedup     = 1;
output_speedup    = 1;
internal_speedup  = 1.0;
vc_busy_when_full = 0;


//granulaity
latency_thres=20000.0;
deadlock_warn_timeout=20000;
traceStretch=3;

//gating
doGating=0;
sleepThreshold=40;
breakEvenThreshold=80;



//Syn Traffic
sim_type=latency;
traffic=uniform;
packet_size = 1;
sample_period=50000;
warmup_periods=1;
max_samples=12;
injection_rate=0.01;

creditDelays=creditDelays({0,0,0,0,0,0,0,0,0,0,0,0,0,0,0,0,0,0,0,0,0,0,0,0,0,0,0,0,0,0,0,0,0,0,0,0,0,0,0,0,0,0,0,0,0,0,0,0,0,0,0,0,0,0,0,0,0,0,0,0,0,0,0,0}});
routingDelays=routingDelays({13,13,13,13,13,13,13,13,13,13,13,13,13,13,13,13,13,13,13,13,13,13,13,13,13,13,13,13,13,13,13,13,13,13,13,13,13,13,13,13,13,13,13,13,13,13,13,13,13,13,13,13,13,13,13,13,13,13,13,13,13,13,13,13});
vcAllocDelays=vcAllocDelays({10,10,10,10,10,10,10,10,10,10,10,10,10,10,10,10,10,10,10,10,10,10,10,10,10,10,10,10,10,10,10,10,10,10,10,10,10,10,10,10,10,10,10,10,10,10,10,10,10,10,10,10,10,10,10,10,10,10,10,10,10,10,10,10});
swAllocDelays=swAllocDelays({15,15,15,15,15,15,15,15,15,15,15,15,15,15,15,15,15,15,15,15,15,15,15,15,15,15,15,15,15,15,15,15,15,15,15,15,15,15,15,15,15,15,15,15,15,15,15,15,15,15,15,15,15,15,15,15,15,15,15,15,15,15,15,15});
stFinalDelays=stFinalDelays({12,12,12,12,12,12,12,12,12,12,12,12,12,12,12,12,12,12,12,12,12,12,12,12,12,12,12,12,12,12,12,12,12,12,12,12,12,12,12,12,12,12,12,12,12,12,12,12,12,12,12,12,12,12,12,12,12,12,12,12,12,12,12,12});
//channelDelays=channelDelays({1,1,1,1,1,1,1,1,1,1,1,1,1,1,1,1});

isAsync=isAsync({1,1,1,1,1,1,1,1,1,1,1,1,1,1,1,1});
isMetaUnstable=isMetaUnstable({0,0,0,0,0,0,0,0,0,0,0,0,0,0,0,0});

creditDelayStdDevs=creditDelayStdDevs({0,0,0,0,0,0,0,0,0,0,0,0,0,0,0,0});
routingDelayStdDevs=routingDelayStdDevs({0,0,0,0,0,0,0,0,0,0,0,0,0,0,0,0});
vcAllocDelayStdDevs=vcAllocDelayStdDevs({0,0,0,0,0,0,0,0,0,0,0,0,0,0,0,0});
swAllocDelayStdDevs=swAllocDelayStdDevs({0,0,0,0,0,0,0,0,0,0,0,0,0,0,0,0});
stFinalDelayStdDevs=stFinalDelayStdDevs({0,0,0,0,0,0,0,0,0,0,0,0,0,0,0,0});

  
swAllocThresholds=swAllocThresholds({1,1,1,1,1,1,1,1,1,1,1,1,1,1,1,1});
swAllocThresholdStdDevs=swAllocThresholdStdDevs({0,0,0,0,0,0,0,0,0,0,0,0,0,0,0,0});
swAllocMetaStableThresholds=swAllocMetaStableThresholds({1,1,1,1,1,1,1,1,1,1,1,1,1,1,1,1});
swAllocMetaStableMaxPenalities=swAllocMetaStableMaxPenalities({0,0,0,0,0,0,0,0,0,0,0,0,0,0,0,0});

END Configuration File: chip1
BEGIN Configuration File: chip2
//topology
topology = mesh;
k = 4;
n = 2;
type = chip;
start_point = 4;
cnum=2;
// Routing
routing_function = dor;

// Flow control
num_vcs     = 2;
vc_buf_size = 8;
wait_for_tail_credit = 1;
hold_switch_for_packet = 1;

// Router architecture
vc_allocator = islip;
sw_allocator = islip;
alloc_iters  = 1;

credit_delay   = 0;
routing_delay  = 1;
vc_alloc_delay = 1;
sw_alloc_delay = 1;
st_final_delay = 1;

input_speedup     = 1;
output_speedup    = 1;
internal_speedup  = 1.0;
vc_busy_when_full = 0;


//granulaity
latency_thres=20000.0;
deadlock_warn_timeout=20000;
traceStretch=3;

//gating
doGating=0;
sleepThreshold=40;
breakEvenThreshold=80;



//Syn Traffic
sim_type=latency;
traffic=uniform;
packet_size = 1;
sample_period=50000;
warmup_periods=3;
max_samples=14;
injection_rate=0.01;

creditDelays=creditDelays({0,0,0,0,0,0,0,0,0,0,0,0,0,0,0,0,0,0,0,0,0,0,0,0,0,0,0,0,0,0,0,0,0,0,0,0,0,0,0,0,0,0,0,0,0,0,0,0,0,0,0,0,0,0,0,0,0,0,0,0,0,0,0,0}});
routingDelays=routingDelays({13,13,13,13,13,13,13,13,13,13,13,13,13,13,13,13,13,13,13,13,13,13,13,13,13,13,13,13,13,13,13,13,13,13,13,13,13,13,13,13,13,13,13,13,13,13,13,13,13,13,13,13,13,13,13,13,13,13,13,13,13,13,13,13});
vcAllocDelays=vcAllocDelays({10,10,10,10,10,10,10,10,10,10,10,10,10,10,10,10,10,10,10,10,10,10,10,10,10,10,10,10,10,10,10,10,10,10,10,10,10,10,10,10,10,10,10,10,10,10,10,10,10,10,10,10,10,10,10,10,10,10,10,10,10,10,10,10});
swAllocDelays=swAllocDelays({15,15,15,15,15,15,15,15,15,15,15,15,15,15,15,15,15,15,15,15,15,15,15,15,15,15,15,15,15,15,15,15,15,15,15,15,15,15,15,15,15,15,15,15,15,15,15,15,15,15,15,15,15,15,15,15,15,15,15,15,15,15,15,15});
stFinalDelays=stFinalDelays({12,12,12,12,12,12,12,12,12,12,12,12,12,12,12,12,12,12,12,12,12,12,12,12,12,12,12,12,12,12,12,12,12,12,12,12,12,12,12,12,12,12,12,12,12,12,12,12,12,12,12,12,12,12,12,12,12,12,12,12,12,12,12,12});
//channelDelays=channelDelays({1,1,1,1,1,1,1,1,1,1,1,1,1,1,1,1});

isAsync=isAsync({1,1,1,1,1,1,1,1,1,1,1,1,1,1,1,1});
isMetaUnstable=isMetaUnstable({0,0,0,0,0,0,0,0,0,0,0,0,0,0,0,0});

creditDelayStdDevs=creditDelayStdDevs({0,0,0,0,0,0,0,0,0,0,0,0,0,0,0,0});
routingDelayStdDevs=routingDelayStdDevs({0,0,0,0,0,0,0,0,0,0,0,0,0,0,0,0});
vcAllocDelayStdDevs=vcAllocDelayStdDevs({0,0,0,0,0,0,0,0,0,0,0,0,0,0,0,0});
swAllocDelayStdDevs=swAllocDelayStdDevs({0,0,0,0,0,0,0,0,0,0,0,0,0,0,0,0});
stFinalDelayStdDevs=stFinalDelayStdDevs({0,0,0,0,0,0,0,0,0,0,0,0,0,0,0,0});

  
swAllocThresholds=swAllocThresholds({1,1,1,1,1,1,1,1,1,1,1,1,1,1,1,1});
swAllocThresholdStdDevs=swAllocThresholdStdDevs({0,0,0,0,0,0,0,0,0,0,0,0,0,0,0,0});
swAllocMetaStableThresholds=swAllocMetaStableThresholds({1,1,1,1,1,1,1,1,1,1,1,1,1,1,1,1});
swAllocMetaStableMaxPenalities=swAllocMetaStableMaxPenalities({0,0,0,0,0,0,0,0,0,0,0,0,0,0,0,0});

END Configuration File: chip2
BEGIN Configuration File: chip3
//topology
topology = mesh;
k = 4;
n = 2;
type = chip;
start_point = 32;
// Routing
cnum=3;
routing_function = dor;

// Flow control
num_vcs     = 2;
vc_buf_size = 8;
wait_for_tail_credit = 1;
hold_switch_for_packet = 1;

// Router architecture
vc_allocator = islip;
sw_allocator = islip;
alloc_iters  = 1;

credit_delay   = 0;
routing_delay  = 1;
vc_alloc_delay = 1;
sw_alloc_delay = 1;
st_final_delay = 1;

input_speedup     = 1;
output_speedup    = 1;
internal_speedup  = 1.0;
vc_busy_when_full = 0;


//granulaity
latency_thres=20000.0;
deadlock_warn_timeout=20000;
traceStretch=3;

//gating
doGating=0;
sleepThreshold=40;
breakEvenThreshold=80;



//Syn Traffic
sim_type=latency;
traffic=uniform;
packet_size = 1;
sample_period=50000;
warmup_periods=3;
max_samples=14;
injection_rate=0.01;

creditDelays=creditDelays({0,0,0,0,0,0,0,0,0,0,0,0,0,0,0,0,0,0,0,0,0,0,0,0,0,0,0,0,0,0,0,0,0,0,0,0,0,0,0,0,0,0,0,0,0,0,0,0,0,0,0,0,0,0,0,0,0,0,0,0,0,0,0,0}});
routingDelays=routingDelays({13,13,13,13,13,13,13,13,13,13,13,13,13,13,13,13,13,13,13,13,13,13,13,13,13,13,13,13,13,13,13,13,13,13,13,13,13,13,13,13,13,13,13,13,13,13,13,13,13,13,13,13,13,13,13,13,13,13,13,13,13,13,13,13});
vcAllocDelays=vcAllocDelays({10,10,10,10,10,10,10,10,10,10,10,10,10,10,10,10,10,10,10,10,10,10,10,10,10,10,10,10,10,10,10,10,10,10,10,10,10,10,10,10,10,10,10,10,10,10,10,10,10,10,10,10,10,10,10,10,10,10,10,10,10,10,10,10});
swAllocDelays=swAllocDelays({15,15,15,15,15,15,15,15,15,15,15,15,15,15,15,15,15,15,15,15,15,15,15,15,15,15,15,15,15,15,15,15,15,15,15,15,15,15,15,15,15,15,15,15,15,15,15,15,15,15,15,15,15,15,15,15,15,15,15,15,15,15,15,15});
stFinalDelays=stFinalDelays({12,12,12,12,12,12,12,12,12,12,12,12,12,12,12,12,12,12,12,12,12,12,12,12,12,12,12,12,12,12,12,12,12,12,12,12,12,12,12,12,12,12,12,12,12,12,12,12,12,12,12,12,12,12,12,12,12,12,12,12,12,12,12,12});
//channelDelays=channelDelays({1,1,1,1,1,1,1,1,1,1,1,1,1,1,1,1});

isAsync=isAsync({1,1,1,1,1,1,1,1,1,1,1,1,1,1,1,1});
isMetaUnstable=isMetaUnstable({0,0,0,0,0,0,0,0,0,0,0,0,0,0,0,0});

creditDelayStdDevs=creditDelayStdDevs({0,0,0,0,0,0,0,0,0,0,0,0,0,0,0,0});
routingDelayStdDevs=routingDelayStdDevs({0,0,0,0,0,0,0,0,0,0,0,0,0,0,0,0});
vcAllocDelayStdDevs=vcAllocDelayStdDevs({0,0,0,0,0,0,0,0,0,0,0,0,0,0,0,0});
swAllocDelayStdDevs=swAllocDelayStdDevs({0,0,0,0,0,0,0,0,0,0,0,0,0,0,0,0});
stFinalDelayStdDevs=stFinalDelayStdDevs({0,0,0,0,0,0,0,0,0,0,0,0,0,0,0,0});

  
swAllocThresholds=swAllocThresholds({1,1,1,1,1,1,1,1,1,1,1,1,1,1,1,1});
swAllocThresholdStdDevs=swAllocThresholdStdDevs({0,0,0,0,0,0,0,0,0,0,0,0,0,0,0,0});
swAllocMetaStableThresholds=swAllocMetaStableThresholds({1,1,1,1,1,1,1,1,1,1,1,1,1,1,1,1});
swAllocMetaStableMaxPenalities=swAllocMetaStableMaxPenalities({0,0,0,0,0,0,0,0,0,0,0,0,0,0,0,0});

END Configuration File: chip3
BEGIN Configuration File: chip4
//topology
topology = mesh;
k = 4;
n = 2;
type = chip;
start_point = 36;
cnum=4;
// Routing
routing_function = dor;

// Flow control
num_vcs     = 2;
vc_buf_size = 8;
wait_for_tail_credit = 1;
hold_switch_for_packet = 1;

// Router architecture
vc_allocator = islip;
sw_allocator = islip;
alloc_iters  = 1;

credit_delay   = 0;
routing_delay  = 1;
vc_alloc_delay = 1;
sw_alloc_delay = 1;
st_final_delay = 1;

input_speedup     = 1;
output_speedup    = 1;
internal_speedup  = 1.0;
vc_busy_when_full = 0;


//granulaity
latency_thres=20000.0;
deadlock_warn_timeout=20000;
traceStretch=3;

//gating
doGating=0;
sleepThreshold=40;
breakEvenThreshold=80;



//Syn Traffic
sim_type=latency;
traffic=uniform;
packet_size = 1;
sample_period=50000;
warmup_periods=3;
max_samples=14;
injection_rate=0.01;

creditDelays=creditDelays({0,0,0,0,0,0,0,0,0,0,0,0,0,0,0,0,0,0,0,0,0,0,0,0,0,0,0,0,0,0,0,0,0,0,0,0,0,0,0,0,0,0,0,0,0,0,0,0,0,0,0,0,0,0,0,0,0,0,0,0,0,0,0,0}});
routingDelays=routingDelays({13,13,13,13,13,13,13,13,13,13,13,13,13,13,13,13,13,13,13,13,13,13,13,13,13,13,13,13,13,13,13,13,13,13,13,13,13,13,13,13,13,13,13,13,13,13,13,13,13,13,13,13,13,13,13,13,13,13,13,13,13,13,13,13});
vcAllocDelays=vcAllocDelays({10,10,10,10,10,10,10,10,10,10,10,10,10,10,10,10,10,10,10,10,10,10,10,10,10,10,10,10,10,10,10,10,10,10,10,10,10,10,10,10,10,10,10,10,10,10,10,10,10,10,10,10,10,10,10,10,10,10,10,10,10,10,10,10});
swAllocDelays=swAllocDelays({15,15,15,15,15,15,15,15,15,15,15,15,15,15,15,15,15,15,15,15,15,15,15,15,15,15,15,15,15,15,15,15,15,15,15,15,15,15,15,15,15,15,15,15,15,15,15,15,15,15,15,15,15,15,15,15,15,15,15,15,15,15,15,15});
stFinalDelays=stFinalDelays({12,12,12,12,12,12,12,12,12,12,12,12,12,12,12,12,12,12,12,12,12,12,12,12,12,12,12,12,12,12,12,12,12,12,12,12,12,12,12,12,12,12,12,12,12,12,12,12,12,12,12,12,12,12,12,12,12,12,12,12,12,12,12,12});
//channelDelays=channelDelays({1,1,1,1,1,1,1,1,1,1,1,1,1,1,1,1});

isAsync=isAsync({1,1,1,1,1,1,1,1,1,1,1,1,1,1,1,1});
isMetaUnstable=isMetaUnstable({0,0,0,0,0,0,0,0,0,0,0,0,0,0,0,0});

creditDelayStdDevs=creditDelayStdDevs({0,0,0,0,0,0,0,0,0,0,0,0,0,0,0,0});
routingDelayStdDevs=routingDelayStdDevs({0,0,0,0,0,0,0,0,0,0,0,0,0,0,0,0});
vcAllocDelayStdDevs=vcAllocDelayStdDevs({0,0,0,0,0,0,0,0,0,0,0,0,0,0,0,0});
swAllocDelayStdDevs=swAllocDelayStdDevs({0,0,0,0,0,0,0,0,0,0,0,0,0,0,0,0});
stFinalDelayStdDevs=stFinalDelayStdDevs({0,0,0,0,0,0,0,0,0,0,0,0,0,0,0,0});

  
swAllocThresholds=swAllocThresholds({1,1,1,1,1,1,1,1,1,1,1,1,1,1,1,1});
swAllocThresholdStdDevs=swAllocThresholdStdDevs({0,0,0,0,0,0,0,0,0,0,0,0,0,0,0,0});
swAllocMetaStableThresholds=swAllocMetaStableThresholds({1,1,1,1,1,1,1,1,1,1,1,1,1,1,1,1});
swAllocMetaStableMaxPenalities=swAllocMetaStableMaxPenalities({0,0,0,0,0,0,0,0,0,0,0,0,0,0,0,0});

END Configuration File: chip4
rid:0 add output _25chan1
rid:0 add input _25chan0
rid:1 add output _25chan3
rid:1 add input _25chan2
rid:2 add output _25chan5
rid:2 add input _25chan4
rid:3 add output _25chan7
rid:3 add input _25chan6
rid:4 add output _25chan33
rid:4 add input _25chan32
rid:5 add output _25chan35
rid:5 add input _25chan34
rid:6 add output _25chan37
rid:6 add input _25chan36
rid:7 add output _25chan39
rid:7 add input _25chan38
rid:8 add output _25chan9
rid:8 add input _25chan8
rid:9 add output _25chan11
rid:9 add input _25chan10
rid:10 add output _25chan13
rid:10 add input _25chan12
rid:11 add output _25chan15
rid:11 add input _25chan14
rid:12 add output _25chan41
rid:12 add input _25chan40
rid:13 add output _25chan43
rid:13 add input _25chan42
rid:14 add output _25chan45
rid:14 add input _25chan44
rid:15 add output _25chan47
rid:15 add input _25chan46
rid:16 add output _25chan17
rid:16 add input _25chan16
rid:17 add output _25chan19
rid:17 add input _25chan18
rid:18 add output _25chan21
rid:18 add input _25chan20
rid:19 add output _25chan23
rid:19 add input _25chan22
rid:20 add output _25chan49
rid:20 add input _25chan48
rid:21 add output _25chan51
rid:21 add input _25chan50
rid:22 add output _25chan53
rid:22 add input _25chan52
rid:23 add output _25chan55
rid:23 add input _25chan54
rid:24 add output _25chan25
rid:24 add input _25chan24
rid:25 add output _25chan27
rid:25 add input _25chan26
rid:26 add output _25chan29
rid:26 add input _25chan28
rid:27 add output _25chan31
rid:27 add input _25chan30
rid:28 add output _25chan57
rid:28 add input _25chan56
rid:29 add output _25chan59
rid:29 add input _25chan58
rid:30 add output _25chan61
rid:30 add input _25chan60
rid:31 add output _25chan63
rid:31 add input _25chan62
rid:32 add output _25chan65
rid:32 add input _25chan64
rid:33 add output _25chan67
rid:33 add input _25chan66
rid:34 add output _25chan69
rid:34 add input _25chan68
rid:35 add output _25chan71
rid:35 add input _25chan70
rid:36 add output _25chan97
rid:36 add input _25chan96
rid:37 add output _25chan99
rid:37 add input _25chan98
rid:38 add output _25chan101
rid:38 add input _25chan100
rid:39 add output _25chan103
rid:39 add input _25chan102
rid:40 add output _25chan73
rid:40 add input _25chan72
rid:41 add output _25chan75
rid:41 add input _25chan74
rid:42 add output _25chan77
rid:42 add input _25chan76
rid:43 add output _25chan79
rid:43 add input _25chan78
rid:44 add output _25chan105
rid:44 add input _25chan104
rid:45 add output _25chan107
rid:45 add input _25chan106
rid:46 add output _25chan109
rid:46 add input _25chan108
rid:47 add output _25chan111
rid:47 add input _25chan110
rid:48 add output _25chan81
rid:48 add input _25chan80
rid:49 add output _25chan83
rid:49 add input _25chan82
rid:50 add output _25chan85
rid:50 add input _25chan84
rid:51 add output _25chan87
rid:51 add input _25chan86
rid:52 add output _25chan113
rid:52 add input _25chan112
rid:53 add output _25chan115
rid:53 add input _25chan114
rid:54 add output _25chan117
rid:54 add input _25chan116
rid:55 add output _25chan119
rid:55 add input _25chan118
rid:56 add output _25chan89
rid:56 add input _25chan88
rid:57 add output _25chan91
rid:57 add input _25chan90
rid:58 add output _25chan93
rid:58 add input _25chan92
rid:59 add output _25chan95
rid:59 add input _25chan94
rid:60 add output _25chan121
rid:60 add input _25chan120
rid:61 add output _25chan123
rid:61 add input _25chan122
rid:62 add output _25chan125
rid:62 add input _25chan124
rid:63 add output _25chan127
rid:63 add input _25chan126
rid:0 add output _25chan0
rid:0 add input _25chan1
rid:1 add output _25chan2
rid:1 add input _25chan3
rid:2 add output _25chan4
rid:2 add input _25chan5
rid:3 add output _25chan6
rid:3 add input _25chan7
rid:4 add output _25chan8
rid:4 add input _25chan9
rid:5 add output _25chan10
rid:5 add input _25chan11
rid:6 add output _25chan12
rid:6 add input _25chan13
rid:7 add output _25chan14
rid:7 add input _25chan15
rid:8 add output _25chan16
rid:8 add input _25chan17
rid:9 add output _25chan18
rid:9 add input _25chan19
rid:10 add output _25chan20
rid:10 add input _25chan21
rid:11 add output _25chan22
rid:11 add input _25chan23
rid:12 add output _25chan24
rid:12 add input _25chan25
rid:13 add output _25chan26
rid:13 add input _25chan27
rid:14 add output _25chan28
rid:14 add input _25chan29
rid:15 add output _25chan30
rid:15 add input _25chan31
rid:0 add output _25chan32
rid:0 add input _25chan33
rid:1 add output _25chan34
rid:1 add input _25chan35
rid:2 add output _25chan36
rid:2 add input _25chan37
rid:3 add output _25chan38
rid:3 add input _25chan39
rid:4 add output _25chan40
rid:4 add input _25chan41
rid:5 add output _25chan42
rid:5 add input _25chan43
rid:6 add output _25chan44
rid:6 add input _25chan45
rid:7 add output _25chan46
rid:7 add input _25chan47
rid:8 add output _25chan48
rid:8 add input _25chan49
rid:9 add output _25chan50
rid:9 add input _25chan51
rid:10 add output _25chan52
rid:10 add input _25chan53
rid:11 add output _25chan54
rid:11 add input _25chan55
rid:12 add output _25chan56
rid:12 add input _25chan57
rid:13 add output _25chan58
rid:13 add input _25chan59
rid:14 add output _25chan60
rid:14 add input _25chan61
rid:15 add output _25chan62
rid:15 add input _25chan63
rid:0 add output _25chan64
rid:0 add input _25chan65
rid:1 add output _25chan66
rid:1 add input _25chan67
rid:2 add output _25chan68
rid:2 add input _25chan69
rid:3 add output _25chan70
rid:3 add input _25chan71
rid:4 add output _25chan72
rid:4 add input _25chan73
rid:5 add output _25chan74
rid:5 add input _25chan75
rid:6 add output _25chan76
rid:6 add input _25chan77
rid:7 add output _25chan78
rid:7 add input _25chan79
rid:8 add output _25chan80
rid:8 add input _25chan81
rid:9 add output _25chan82
rid:9 add input _25chan83
rid:10 add output _25chan84
rid:10 add input _25chan85
rid:11 add output _25chan86
rid:11 add input _25chan87
rid:12 add output _25chan88
rid:12 add input _25chan89
rid:13 add output _25chan90
rid:13 add input _25chan91
rid:14 add output _25chan92
rid:14 add input _25chan93
rid:15 add output _25chan94
rid:15 add input _25chan95
rid:0 add output _25chan96
rid:0 add input _25chan97
rid:1 add output _25chan98
rid:1 add input _25chan99
rid:2 add output _25chan100
rid:2 add input _25chan101
rid:3 add output _25chan102
rid:3 add input _25chan103
rid:4 add output _25chan104
rid:4 add input _25chan105
rid:5 add output _25chan106
rid:5 add input _25chan107
rid:6 add output _25chan108
rid:6 add input _25chan109
rid:7 add output _25chan110
rid:7 add input _25chan111
rid:8 add output _25chan112
rid:8 add input _25chan113
rid:9 add output _25chan114
rid:9 add input _25chan115
rid:10 add output _25chan116
rid:10 add input _25chan117
rid:11 add output _25chan118
rid:11 add input _25chan119
rid:12 add output _25chan120
rid:12 add input _25chan121
rid:13 add output _25chan122
rid:13 add input _25chan123
rid:14 add output _25chan124
rid:14 add input _25chan125
rid:15 add output _25chan126
rid:15 add input _25chan127

Tick: 0M
===== Time: 5000 =====
Class 0:
Minimum packet latency = 52
Average packet latency = 395.85
Maximum packet latency = 878
Minimum network latency = 53
Average network latency = 396.771
Maximum network latency = 879
Slowest packet = 242
Minimum flit latency = 53
Average flit latency = 396.771
Maximum flit latency = 879
Slowest flit = 242
Minimum fragmentation = 0
Average fragmentation = 0
Maximum fragmentation = 0
Minimum injected packet rate = 0 (at node 0)
Average injected packet rate = 0.00095
Maximum injected packet rate = 0.0036 (at node 107)
Minimum accepted packet rate = 0 (at node 0)
Average accepted packet rate = 0.000885938
Maximum accepted packet rate = 0.0028 (at node 88)
Minimum injected flit rate = 0 (at node 0)
Average injected flit rate = 0.00095
Maximum injected flit rate = 0.0036 (at node 107)
Minimum accepted flit rate = 0 (at node 0)
Average accepted flit rate = 0.000885938
Maximum accepted flit rate = 0.0028 (at node 88)
Total number of injected packets = 608
Total number of injected flits = 608
Average injected packet length = 1
Total number of accepted packets = 567
Total number of accepted flits = 567
Average accepted packet length = 1
Total in-flight flits = 41 (0 measured)
class 0 latency change    = 1
class 0 throughput change = 1
Warmed up ...Time used is 5000 cycles
===== Time: 10000 =====
Class 0:
Minimum packet latency = 52
Average packet latency = 388.01
Maximum packet latency = 817
Minimum network latency = 53
Average network latency = 388.952
Maximum network latency = 818
Slowest packet = 1105
Minimum flit latency = 53
Average flit latency = 394.019
Maximum flit latency = 818
Slowest flit = 1105
Minimum fragmentation = 0
Average fragmentation = 0
Maximum fragmentation = 0
Minimum injected packet rate = 0 (at node 0)
Average injected packet rate = 0.00100156
Maximum injected packet rate = 0.0032 (at node 89)
Minimum accepted packet rate = 0 (at node 0)
Average accepted packet rate = 0.000976562
Maximum accepted packet rate = 0.0038 (at node 115)
Minimum injected flit rate = 0 (at node 0)
Average injected flit rate = 0.00100156
Maximum injected flit rate = 0.0032 (at node 89)
Minimum accepted flit rate = 0 (at node 0)
Average accepted flit rate = 0.000976562
Maximum accepted flit rate = 0.0038 (at node 115)
Total number of injected packets = 641
Total number of injected flits = 641
Average injected packet length = 1
Total number of accepted packets = 625
Total number of accepted flits = 625
Average accepted packet length = 1
Total in-flight flits = 57 (57 measured)
class 0 latency change    = 0.0202052
class 0 throughput change = 0.0928
===== Time: 15000 =====
Class 0:
Minimum packet latency = 52
Average packet latency = 400.708
Maximum packet latency = 889
Minimum network latency = 53
Average network latency = 401.679
Maximum network latency = 890
Slowest packet = 1330
Minimum flit latency = 53
Average flit latency = 403.731
Maximum flit latency = 890
Slowest flit = 1330
Minimum fragmentation = 0
Average fragmentation = 0
Maximum fragmentation = 0
Minimum injected packet rate = 0 (at node 0)
Average injected packet rate = 0.00100781
Maximum injected packet rate = 0.0031 (at node 79)
Minimum accepted packet rate = 0 (at node 0)
Average accepted packet rate = 0.00100703
Maximum accepted packet rate = 0.0031 (at node 115)
Minimum injected flit rate = 0 (at node 0)
Average injected flit rate = 0.00100781
Maximum injected flit rate = 0.0031 (at node 79)
Minimum accepted flit rate = 0 (at node 0)
Average accepted flit rate = 0.00100703
Maximum accepted flit rate = 0.0031 (at node 115)
Total number of injected packets = 1290
Total number of injected flits = 1290
Average injected packet length = 1
Total number of accepted packets = 1289
Total number of accepted flits = 1289
Average accepted packet length = 1
Total in-flight flits = 42 (42 measured)
class 0 latency change    = 0.031689
class 0 throughput change = 0.030256
===== Time: 20000 =====
Class 0:
Minimum packet latency = 52
Average packet latency = 401.12
Maximum packet latency = 889
Minimum network latency = 53
Average network latency = 402.099
Maximum network latency = 890
Slowest packet = 1330
Minimum flit latency = 53
Average flit latency = 403.475
Maximum flit latency = 890
Slowest flit = 1330
Minimum fragmentation = 0
Average fragmentation = 0
Maximum fragmentation = 0
Minimum injected packet rate = 0 (at node 0)
Average injected packet rate = 0.00100312
Maximum injected packet rate = 0.0028 (at node 117)
Minimum accepted packet rate = 0 (at node 0)
Average accepted packet rate = 0.000994271
Maximum accepted packet rate = 0.003 (at node 84)
Minimum injected flit rate = 0 (at node 0)
Average injected flit rate = 0.00100312
Maximum injected flit rate = 0.0028 (at node 117)
Minimum accepted flit rate = 0 (at node 0)
Average accepted flit rate = 0.000994271
Maximum accepted flit rate = 0.003 (at node 84)
Total number of injected packets = 1926
Total number of injected flits = 1926
Average injected packet length = 1
Total number of accepted packets = 1909
Total number of accepted flits = 1909
Average accepted packet length = 1
Total in-flight flits = 58 (58 measured)
class 0 latency change    = 0.00102741
class 0 throughput change = 0.0128339
===== Time: 25000 =====
Class 0:
Minimum packet latency = 52
Average packet latency = 400.635
Maximum packet latency = 889
Minimum network latency = 53
Average network latency = 401.614
Maximum network latency = 890
Slowest packet = 1330
Minimum flit latency = 53
Average flit latency = 402.646
Maximum flit latency = 890
Slowest flit = 1330
Minimum fragmentation = 0
Average fragmentation = 0
Maximum fragmentation = 0
Minimum injected packet rate = 0 (at node 0)
Average injected packet rate = 0.0010043
Maximum injected packet rate = 0.00265 (at node 79)
Minimum accepted packet rate = 0 (at node 0)
Average accepted packet rate = 0.00100156
Maximum accepted packet rate = 0.00275 (at node 113)
Minimum injected flit rate = 0 (at node 0)
Average injected flit rate = 0.0010043
Maximum injected flit rate = 0.00265 (at node 79)
Minimum accepted flit rate = 0 (at node 0)
Average accepted flit rate = 0.00100156
Maximum accepted flit rate = 0.00275 (at node 113)
Total number of injected packets = 2571
Total number of injected flits = 2571
Average injected packet length = 1
Total number of accepted packets = 2564
Total number of accepted flits = 2564
Average accepted packet length = 1
Total in-flight flits = 48 (48 measured)
class 0 latency change    = 0.0012118
class 0 throughput change = 0.00728029
===== Time: 30000 =====
Class 0:
Minimum packet latency = 52
Average packet latency = 401.466
Maximum packet latency = 889
Minimum network latency = 53
Average network latency = 402.449
Maximum network latency = 890
Slowest packet = 1330
Minimum flit latency = 53
Average flit latency = 403.263
Maximum flit latency = 890
Slowest flit = 1330
Minimum fragmentation = 0
Average fragmentation = 0
Maximum fragmentation = 0
Minimum injected packet rate = 0 (at node 0)
Average injected packet rate = 0.00100875
Maximum injected packet rate = 0.00256 (at node 90)
Minimum accepted packet rate = 0 (at node 0)
Average accepted packet rate = 0.00100281
Maximum accepted packet rate = 0.00276 (at node 113)
Minimum injected flit rate = 0 (at node 0)
Average injected flit rate = 0.00100875
Maximum injected flit rate = 0.00256 (at node 90)
Minimum accepted flit rate = 0 (at node 0)
Average accepted flit rate = 0.00100281
Maximum accepted flit rate = 0.00276 (at node 113)
Total number of injected packets = 3228
Total number of injected flits = 3228
Average injected packet length = 1
Total number of accepted packets = 3209
Total number of accepted flits = 3209
Average accepted packet length = 1
Total in-flight flits = 60 (60 measured)
class 0 latency change    = 0.00206901
class 0 throughput change = 0.00124649
===== Time: 35000 =====
Class 0:
Minimum packet latency = 52
Average packet latency = 401.323
Maximum packet latency = 890
Minimum network latency = 53
Average network latency = 402.306
Maximum network latency = 891
Slowest packet = 3845
Minimum flit latency = 53
Average flit latency = 402.983
Maximum flit latency = 891
Slowest flit = 3845
Minimum fragmentation = 0
Average fragmentation = 0
Maximum fragmentation = 0
Minimum injected packet rate = 0 (at node 0)
Average injected packet rate = 0.00100911
Maximum injected packet rate = 0.0026 (at node 79)
Minimum accepted packet rate = 0 (at node 0)
Average accepted packet rate = 0.00100833
Maximum accepted packet rate = 0.00256667 (at node 91)
Minimum injected flit rate = 0 (at node 0)
Average injected flit rate = 0.00100911
Maximum injected flit rate = 0.0026 (at node 79)
Minimum accepted flit rate = 0 (at node 0)
Average accepted flit rate = 0.00100833
Maximum accepted flit rate = 0.00256667 (at node 91)
Total number of injected packets = 3875
Total number of injected flits = 3875
Average injected packet length = 1
Total number of accepted packets = 3872
Total number of accepted flits = 3872
Average accepted packet length = 1
Total in-flight flits = 44 (44 measured)
class 0 latency change    = 0.000355577
class 0 throughput change = 0.00547521
===== Time: 40000 =====
Class 0:
Minimum packet latency = 52
Average packet latency = 402.224
Maximum packet latency = 890
Minimum network latency = 53
Average network latency = 403.205
Maximum network latency = 891
Slowest packet = 3845
Minimum flit latency = 53
Average flit latency = 403.771
Maximum flit latency = 891
Slowest flit = 3845
Minimum fragmentation = 0
Average fragmentation = 0
Maximum fragmentation = 0
Minimum injected packet rate = 0 (at node 0)
Average injected packet rate = 0.00102054
Maximum injected packet rate = 0.00262857 (at node 110)
Minimum accepted packet rate = 0 (at node 0)
Average accepted packet rate = 0.0010183
Maximum accepted packet rate = 0.0026 (at node 118)
Minimum injected flit rate = 0 (at node 0)
Average injected flit rate = 0.00102054
Maximum injected flit rate = 0.00262857 (at node 110)
Minimum accepted flit rate = 0 (at node 0)
Average accepted flit rate = 0.0010183
Maximum accepted flit rate = 0.0026 (at node 118)
Total number of injected packets = 4572
Total number of injected flits = 4572
Average injected packet length = 1
Total number of accepted packets = 4562
Total number of accepted flits = 4562
Average accepted packet length = 1
Total in-flight flits = 51 (51 measured)
class 0 latency change    = 0.00224102
class 0 throughput change = 0.00979103
===== Time: 45000 =====
Class 0:
Minimum packet latency = 52
Average packet latency = 402.262
Maximum packet latency = 890
Minimum network latency = 53
Average network latency = 403.242
Maximum network latency = 891
Slowest packet = 3845
Minimum flit latency = 53
Average flit latency = 403.742
Maximum flit latency = 891
Slowest flit = 3845
Minimum fragmentation = 0
Average fragmentation = 0
Maximum fragmentation = 0
Minimum injected packet rate = 0 (at node 0)
Average injected packet rate = 0.00100918
Maximum injected packet rate = 0.002525 (at node 73)
Minimum accepted packet rate = 0 (at node 0)
Average accepted packet rate = 0.00100801
Maximum accepted packet rate = 0.0025 (at node 118)
Minimum injected flit rate = 0 (at node 0)
Average injected flit rate = 0.00100918
Maximum injected flit rate = 0.002525 (at node 73)
Minimum accepted flit rate = 0 (at node 0)
Average accepted flit rate = 0.00100801
Maximum accepted flit rate = 0.0025 (at node 118)
Total number of injected packets = 5167
Total number of injected flits = 5167
Average injected packet length = 1
Total number of accepted packets = 5161
Total number of accepted flits = 5161
Average accepted packet length = 1
Total in-flight flits = 47 (47 measured)
class 0 latency change    = 9.30541e-05
class 0 throughput change = 0.010214
===== Time: 50000 =====
Class 0:
Minimum packet latency = 52
Average packet latency = 402.48
Maximum packet latency = 890
Minimum network latency = 53
Average network latency = 403.457
Maximum network latency = 891
Slowest packet = 3845
Minimum flit latency = 53
Average flit latency = 403.897
Maximum flit latency = 891
Slowest flit = 3845
Minimum fragmentation = 0
Average fragmentation = 0
Maximum fragmentation = 0
Minimum injected packet rate = 0 (at node 0)
Average injected packet rate = 0.00101458
Maximum injected packet rate = 0.00255556 (at node 110)
Minimum accepted packet rate = 0 (at node 0)
Average accepted packet rate = 0.00101476
Maximum accepted packet rate = 0.0026 (at node 113)
Minimum injected flit rate = 0 (at node 0)
Average injected flit rate = 0.00101458
Maximum injected flit rate = 0.00255556 (at node 110)
Minimum accepted flit rate = 0 (at node 0)
Average accepted flit rate = 0.00101476
Maximum accepted flit rate = 0.0026 (at node 113)
Total number of injected packets = 5844
Total number of injected flits = 5844
Average injected packet length = 1
Total number of accepted packets = 5845
Total number of accepted flits = 5845
Average accepted packet length = 1
Total in-flight flits = 40 (40 measured)
class 0 latency change    = 0.000543231
class 0 throughput change = 0.00665098
===== Time: 55000 =====
Class 0:
Minimum packet latency = 52
Average packet latency = 402.078
Maximum packet latency = 908
Minimum network latency = 53
Average network latency = 403.055
Maximum network latency = 909
Slowest packet = 6917
Minimum flit latency = 53
Average flit latency = 403.457
Maximum flit latency = 909
Slowest flit = 6917
Minimum fragmentation = 0
Average fragmentation = 0
Maximum fragmentation = 0
Minimum injected packet rate = 0 (at node 0)
Average injected packet rate = 0.00100734
Maximum injected packet rate = 0.00252 (at node 110)
Minimum accepted packet rate = 0 (at node 0)
Average accepted packet rate = 0.00100547
Maximum accepted packet rate = 0.00258 (at node 113)
Minimum injected flit rate = 0 (at node 0)
Average injected flit rate = 0.00100734
Maximum injected flit rate = 0.00252 (at node 110)
Minimum accepted flit rate = 0 (at node 0)
Average accepted flit rate = 0.00100547
Maximum accepted flit rate = 0.00258 (at node 113)
Total number of injected packets = 6447
Total number of injected flits = 6447
Average injected packet length = 1
Total number of accepted packets = 6435
Total number of accepted flits = 6435
Average accepted packet length = 1
Total in-flight flits = 53 (53 measured)
class 0 latency change    = 0.00100176
class 0 throughput change = 0.00923768
Draining remaining packets ...
Time taken is 55578 cycles
====== Traffic class 0 ======

Total number of flits generated = 7055, changed lanes = 0
Overall minimum packet latency = 52 (1 samples)
Overall average packet latency = 402.562 (1 samples)
Overall maximum packet latency = 908 (1 samples)
Overall minimum network latency = 53 (1 samples)
Overall average network latency = 403.54 (1 samples)
Overall maximum network latency = 909 (1 samples)
Overall minimum flit latency = 53 (1 samples)
Overall average flit latency = 403.936 (1 samples)
Overall maximum flit latency = 909 (1 samples)
Overall minimum fragmentation = 0 (1 samples)
Overall average fragmentation = 0 (1 samples)
Overall maximum fragmentation = 0 (1 samples)
Overall minimum injected packet rate = 0 (1 samples)
Overall average injected packet rate = 0.00100734 (1 samples)
Overall maximum injected packet rate = 0.00252 (1 samples)
Overall minimum accepted packet rate = 0 (1 samples)
Overall average accepted packet rate = 0.00100547 (1 samples)
Overall maximum accepted packet rate = 0.00258 (1 samples)
Overall minimum injected flit rate = 0 (1 samples)
Overall average injected flit rate = 0.00100734 (1 samples)
Overall maximum injected flit rate = 0.00252 (1 samples)
Overall minimum accepted flit rate = 0 (1 samples)
Overall average accepted flit rate = 0.00100547 (1 samples)
Overall maximum accepted flit rate = 0.00258 (1 samples)
Overall average injected packet size = 1 (1 samples)
Overall average accepted packet size = 1 (1 samples)
Overall average hops = 7.70017 (1 samples)
Overall throughput of the network (flits/cycle) = 0.1411
Overall throughput of the network (packets/cycle) = 0.1411
CSV Result Header , avgFLat,avgFInjRate
CSV Result ,403.936,0.00100734

Power Report Header, Frequency, Time, StaticIQ, DynamicIQ, StaticVC, DynamicVC, StaticSA, DynamicSA, StaticST, DynamicST, StaticLink, DynamicLink, NoFlits, ePerFlit
Power Report,3.9e+08,55578,0.131875,0.00340901,0.00749762,0.000101132,0.00224928,8.79899e-05,0.477597,0.00111591,0.0905466,0.00236413,7055,1.44819e-08

*****************************************
Total run time 12.8274
generate:0x7fffe5ee3e80
delete:0x7fffe5ee3e80
L = 2 K = 8.1 M = 2 N = 1
-----------------------------------------
- OCN Power Summary
- Completion Time:         55578
- Flit Widths:            64
- Channel Wire Power:      0.318485
- Channel Clock Power:     1.46183
- Channel Retiming Power:  0.003957
- Channel Leakage Power:   0.551082
- Input Read Power:        0.00987051
- Input Write Power:       0.00987051
- Input Leakage Power:     0.113246
- Switch Power:            0.0213098
- Switch Control Power:    0.0110819
- Switch Leakage Power:    0.771052
- Output DFF Power:        0.00230051
- Output Clk Power:        0.727126
- Output Control Power:    0.00118725
- Total Power:             4.00239
-----------------------------------------

-----------------------------------------
- OCN Area Summary
- Channel Area:  0.109536
- Switch  Area:  0.241592
- Input  Area:   0.120796
- Output  Area:  0.0201327
- Total Area:    0.492056
-----------------------------------------
CSV Power Result Header , Completion Time, Channel Wire, Channel Clock, Channel Retiming, Channel Leakage, Input Read, Input Write, Input Leakage, Switch Power, Switch Control, Switch Leakage, Output DFF, Output Clk, Output Control
CSV Power Result , 55578, 0.318485, 1.46183, 0.003957, 0.551082, 0.00987051, 0.00987051, 0.113246, 0.0213098, 0.0110819, 0.771052, 0.00230051, 0.727126, 0.00118725
delete:0x7fffe5ee3e80
delete:0x7fffe5ee3e80
delete:0x7fffe5ee3e80
delete:0x7fffe5ee3e80
delete:0x7fffe5ee3e80
delete:0x7fffe5ee3e80
