generate:0x7ffe9099f310
generate:0x7ffe9099f3c8
generate:0x7ffe9099f480
generate:0x7ffe9099f538
generate:0x7ffe9099f5f0
generate:0x7ffe9099f760
BEGIN Configuration File: interposer1
//topology
topology = mesh;
k = 8;
n = 2;
type = interposer;
// Routing
routing_function = dor;

// Flow control
num_vcs     = 2;
vc_buf_size = 8;
wait_for_tail_credit = 1;
hold_switch_for_packet = 1;

// Router architecture
vc_allocator = islip;
sw_allocator = islip;
alloc_iters  = 1;

credit_delay   = 0;
routing_delay  = 1;
vc_alloc_delay = 1;
sw_alloc_delay = 1;
st_final_delay = 1;

input_speedup     = 1;
output_speedup    = 1;
internal_speedup  = 1.0;
vc_busy_when_full = 0;


//granulaity
latency_thres=20000.0;
deadlock_warn_timeout=20000;
traceStretch=3;

//gating
doGating=0;
sleepThreshold=40;
breakEvenThreshold=80;



//Syn Traffic
//sim_type=latency;
sim_type=throughput;
traffic=uniform;
packet_size = 1;
sample_period=5000;
warmup_periods=1;
max_samples=11;
injection_rate=0.008;

creditDelays=creditDelays({0,0,0,0,0,0,0,0,0,0,0,0,0,0,0,0,0,0,0,0,0,0,0,0,0,0,0,0,0,0,0,0,0,0,0,0,0,0,0,0,0,0,0,0,0,0,0,0,0,0,0,0,0,0,0,0,0,0,0,0,0,0,0,0}});
routingDelays=routingDelays({13,13,13,13,13,13,13,13,13,13,13,13,13,13,13,13,13,13,13,13,13,13,13,13,13,13,13,13,13,13,13,13,13,13,13,13,13,13,13,13,13,13,13,13,13,13,13,13,13,13,13,13,13,13,13,13,13,13,13,13,13,13,13,13});
vcAllocDelays=vcAllocDelays({10,10,10,10,10,10,10,10,10,10,10,10,10,10,10,10,10,10,10,10,10,10,10,10,10,10,10,10,10,10,10,10,10,10,10,10,10,10,10,10,10,10,10,10,10,10,10,10,10,10,10,10,10,10,10,10,10,10,10,10,10,10,10,10});
swAllocDelays=swAllocDelays({15,15,15,15,15,15,15,15,15,15,15,15,15,15,15,15,15,15,15,15,15,15,15,15,15,15,15,15,15,15,15,15,15,15,15,15,15,15,15,15,15,15,15,15,15,15,15,15,15,15,15,15,15,15,15,15,15,15,15,15,15,15,15,15});
stFinalDelays=stFinalDelays({12,12,12,12,12,12,12,12,12,12,12,12,12,12,12,12,12,12,12,12,12,12,12,12,12,12,12,12,12,12,12,12,12,12,12,12,12,12,12,12,12,12,12,12,12,12,12,12,12,12,12,12,12,12,12,12,12,12,12,12,12,12,12,12});
//channelDelays=channelDelays({1,1,1,1,1,1,1,1,1,1,1,1,1,1,1,1,1,1,1,1,1,1,1,1,1,1,1,1,1,1,1,1,1,1,1,1,1,1,1,1,1,1,1,1,1,1,1,1,1,1,1,1,1,1,1,1,1,1,1,1,1,1,1,1});

isAsync=isAsync({1,1,1,1,1,1,1,1,1,1,1,1,1,1,1,1,1,1,1,1,1,1,1,1,1,1,1,1,1,1,1,1,1,1,1,1,1,1,1,1,1,1,1,1,1,1,1,1,1,1,1,1,1,1,1,1,1,1,1,1,1,1,1,1});
isMetaUnstable=isMetaUnstable({0,0,0,0,0,0,0,0,0,0,0,0,0,0,0,0,0,0,0,0,0,0,0,0,0,0,0,0,0,0,0,0,0,0,0,0,0,0,0,0,0,0,0,0,0,0,0,0,0,0,0,0,0,0,0,0,0,0,0,0,0,0,0,0});

creditDelayStdDevs=creditDelayStdDevs({0,0,0,0,0,0,0,0,0,0,0,0,0,0,0,0,0,0,0,0,0,0,0,0,0,0,0,0,0,0,0,0,0,0,0,0,0,0,0,0,0,0,0,0,0,0,0,0,0,0,0,0,0,0,0,0,0,0,0,0,0,0,0,0});
routingDelayStdDevs=routingDelayStdDevs({0,0,0,0,0,0,0,0,0,0,0,0,0,0,0,0,0,0,0,0,0,0,0,0,0,0,0,0,0,0,0,0,0,0,0,0,0,0,0,0,0,0,0,0,0,0,0,0,0,0,0,0,0,0,0,0,0,0,0,0,0,0,0,0});
vcAllocDelayStdDevs=vcAllocDelayStdDevs({0,0,0,0,0,0,0,0,0,0,0,0,0,0,0,0,0,0,0,0,0,0,0,0,0,0,0,0,0,0,0,0,0,0,0,0,0,0,0,0,0,0,0,0,0,0,0,0,0,0,0,0,0,0,0,0,0,0,0,0,0,0,0,0});
swAllocDelayStdDevs=swAllocDelayStdDevs({0,0,0,0,0,0,0,0,0,0,0,0,0,0,0,0,0,0,0,0,0,0,0,0,0,0,0,0,0,0,0,0,0,0,0,0,0,0,0,0,0,0,0,0,0,0,0,0,0,0,0,0,0,0,0,0,0,0,0,0,0,0,0,0});
stFinalDelayStdDevs=stFinalDelayStdDevs({0,0,0,0,0,0,0,0,0,0,0,0,0,0,0,0,0,0,0,0,0,0,0,0,0,0,0,0,0,0,0,0,0,0,0,0,0,0,0,0,0,0,0,0,0,0,0,0,0,0,0,0,0,0,0,0,0,0,0,0,0,0,0,0});

  
swAllocThresholds=swAllocThresholds({1,1,1,1,1,1,1,1,1,1,1,1,1,1,1,1,1,1,1,1,1,1,1,1,1,1,1,1,1,1,1,1,1,1,1,1,1,1,1,1,1,1,1,1,1,1,1,1,1,1,1,1,1,1,1,1,1,1,1,1,1,1,1,1});
swAllocThresholdStdDevs=swAllocThresholdStdDevs({0,0,0,0,0,0,0,0,0,0,0,0,0,0,0,0,0,0,0,0,0,0,0,0,0,0,0,0,0,0,0,0,0,0,0,0,0,0,0,0,0,0,0,0,0,0,0,0,0,0,0,0,0,0,0,0,0,0,0,0,0,0,0,0});
swAllocMetaStableThresholds=swAllocMetaStableThresholds({1,1,1,1,1,1,1,1,1,1,1,1,1,1,1,1,1,1,1,1,1,1,1,1,1,1,1,1,1,1,1,1,1,1,1,1,1,1,1,1,1,1,1,1,1,1,1,1,1,1,1,1,1,1,1,1,1,1,1,1,1,1,1,1});
swAllocMetaStableMaxPenalities=swAllocMetaStableMaxPenalities({0,0,0,0,0,0,0,0,0,0,0,0,0,0,0,0,0,0,0,0,0,0,0,0,0,0,0,0,0,0,0,0,0,0,0,0,0,0,0,0,0,0,0,0,0,0,0,0,0,0,0,0,0,0,0,0,0,0,0,0,0,0,0,0});

END Configuration File: interposer1
BEGIN Configuration File: chip1
//topology
topology = mesh;
k = 4;
n = 2;
type = chip;
start_point = 0;
cnum=1;
// Routing
routing_function = dor;

// Flow control
num_vcs     = 2;
vc_buf_size = 8;
wait_for_tail_credit = 1;
hold_switch_for_packet = 1;

// Router architecture
vc_allocator = islip;
sw_allocator = islip;
alloc_iters  = 1;

credit_delay   = 0;
routing_delay  = 1;
vc_alloc_delay = 1;
sw_alloc_delay = 1;
st_final_delay = 1;

input_speedup     = 1;
output_speedup    = 1;
internal_speedup  = 1.0;
vc_busy_when_full = 0;


//granulaity
latency_thres=20000.0;
deadlock_warn_timeout=20000;
traceStretch=3;

//gating
doGating=0;
sleepThreshold=40;
breakEvenThreshold=80;



//Syn Traffic
sim_type=latency;
traffic=uniform;
packet_size = 1;
sample_period=50000;
warmup_periods=1;
max_samples=12;
injection_rate=0.01;

creditDelays=creditDelays({0,0,0,0,0,0,0,0,0,0,0,0,0,0,0,0,0,0,0,0,0,0,0,0,0,0,0,0,0,0,0,0,0,0,0,0,0,0,0,0,0,0,0,0,0,0,0,0,0,0,0,0,0,0,0,0,0,0,0,0,0,0,0,0}});
routingDelays=routingDelays({13,13,13,13,13,13,13,13,13,13,13,13,13,13,13,13,13,13,13,13,13,13,13,13,13,13,13,13,13,13,13,13,13,13,13,13,13,13,13,13,13,13,13,13,13,13,13,13,13,13,13,13,13,13,13,13,13,13,13,13,13,13,13,13});
vcAllocDelays=vcAllocDelays({10,10,10,10,10,10,10,10,10,10,10,10,10,10,10,10,10,10,10,10,10,10,10,10,10,10,10,10,10,10,10,10,10,10,10,10,10,10,10,10,10,10,10,10,10,10,10,10,10,10,10,10,10,10,10,10,10,10,10,10,10,10,10,10});
swAllocDelays=swAllocDelays({15,15,15,15,15,15,15,15,15,15,15,15,15,15,15,15,15,15,15,15,15,15,15,15,15,15,15,15,15,15,15,15,15,15,15,15,15,15,15,15,15,15,15,15,15,15,15,15,15,15,15,15,15,15,15,15,15,15,15,15,15,15,15,15});
stFinalDelays=stFinalDelays({12,12,12,12,12,12,12,12,12,12,12,12,12,12,12,12,12,12,12,12,12,12,12,12,12,12,12,12,12,12,12,12,12,12,12,12,12,12,12,12,12,12,12,12,12,12,12,12,12,12,12,12,12,12,12,12,12,12,12,12,12,12,12,12});
//channelDelays=channelDelays({1,1,1,1,1,1,1,1,1,1,1,1,1,1,1,1});

isAsync=isAsync({1,1,1,1,1,1,1,1,1,1,1,1,1,1,1,1});
isMetaUnstable=isMetaUnstable({0,0,0,0,0,0,0,0,0,0,0,0,0,0,0,0});

creditDelayStdDevs=creditDelayStdDevs({0,0,0,0,0,0,0,0,0,0,0,0,0,0,0,0});
routingDelayStdDevs=routingDelayStdDevs({0,0,0,0,0,0,0,0,0,0,0,0,0,0,0,0});
vcAllocDelayStdDevs=vcAllocDelayStdDevs({0,0,0,0,0,0,0,0,0,0,0,0,0,0,0,0});
swAllocDelayStdDevs=swAllocDelayStdDevs({0,0,0,0,0,0,0,0,0,0,0,0,0,0,0,0});
stFinalDelayStdDevs=stFinalDelayStdDevs({0,0,0,0,0,0,0,0,0,0,0,0,0,0,0,0});

  
swAllocThresholds=swAllocThresholds({1,1,1,1,1,1,1,1,1,1,1,1,1,1,1,1});
swAllocThresholdStdDevs=swAllocThresholdStdDevs({0,0,0,0,0,0,0,0,0,0,0,0,0,0,0,0});
swAllocMetaStableThresholds=swAllocMetaStableThresholds({1,1,1,1,1,1,1,1,1,1,1,1,1,1,1,1});
swAllocMetaStableMaxPenalities=swAllocMetaStableMaxPenalities({0,0,0,0,0,0,0,0,0,0,0,0,0,0,0,0});

END Configuration File: chip1
BEGIN Configuration File: chip2
//topology
topology = mesh;
k = 4;
n = 2;
type = chip;
start_point = 4;
cnum=2;
// Routing
routing_function = dor;

// Flow control
num_vcs     = 2;
vc_buf_size = 8;
wait_for_tail_credit = 1;
hold_switch_for_packet = 1;

// Router architecture
vc_allocator = islip;
sw_allocator = islip;
alloc_iters  = 1;

credit_delay   = 0;
routing_delay  = 1;
vc_alloc_delay = 1;
sw_alloc_delay = 1;
st_final_delay = 1;

input_speedup     = 1;
output_speedup    = 1;
internal_speedup  = 1.0;
vc_busy_when_full = 0;


//granulaity
latency_thres=20000.0;
deadlock_warn_timeout=20000;
traceStretch=3;

//gating
doGating=0;
sleepThreshold=40;
breakEvenThreshold=80;



//Syn Traffic
sim_type=latency;
traffic=uniform;
packet_size = 1;
sample_period=50000;
warmup_periods=3;
max_samples=14;
injection_rate=0.01;

creditDelays=creditDelays({0,0,0,0,0,0,0,0,0,0,0,0,0,0,0,0,0,0,0,0,0,0,0,0,0,0,0,0,0,0,0,0,0,0,0,0,0,0,0,0,0,0,0,0,0,0,0,0,0,0,0,0,0,0,0,0,0,0,0,0,0,0,0,0}});
routingDelays=routingDelays({13,13,13,13,13,13,13,13,13,13,13,13,13,13,13,13,13,13,13,13,13,13,13,13,13,13,13,13,13,13,13,13,13,13,13,13,13,13,13,13,13,13,13,13,13,13,13,13,13,13,13,13,13,13,13,13,13,13,13,13,13,13,13,13});
vcAllocDelays=vcAllocDelays({10,10,10,10,10,10,10,10,10,10,10,10,10,10,10,10,10,10,10,10,10,10,10,10,10,10,10,10,10,10,10,10,10,10,10,10,10,10,10,10,10,10,10,10,10,10,10,10,10,10,10,10,10,10,10,10,10,10,10,10,10,10,10,10});
swAllocDelays=swAllocDelays({15,15,15,15,15,15,15,15,15,15,15,15,15,15,15,15,15,15,15,15,15,15,15,15,15,15,15,15,15,15,15,15,15,15,15,15,15,15,15,15,15,15,15,15,15,15,15,15,15,15,15,15,15,15,15,15,15,15,15,15,15,15,15,15});
stFinalDelays=stFinalDelays({12,12,12,12,12,12,12,12,12,12,12,12,12,12,12,12,12,12,12,12,12,12,12,12,12,12,12,12,12,12,12,12,12,12,12,12,12,12,12,12,12,12,12,12,12,12,12,12,12,12,12,12,12,12,12,12,12,12,12,12,12,12,12,12});
//channelDelays=channelDelays({1,1,1,1,1,1,1,1,1,1,1,1,1,1,1,1});

isAsync=isAsync({1,1,1,1,1,1,1,1,1,1,1,1,1,1,1,1});
isMetaUnstable=isMetaUnstable({0,0,0,0,0,0,0,0,0,0,0,0,0,0,0,0});

creditDelayStdDevs=creditDelayStdDevs({0,0,0,0,0,0,0,0,0,0,0,0,0,0,0,0});
routingDelayStdDevs=routingDelayStdDevs({0,0,0,0,0,0,0,0,0,0,0,0,0,0,0,0});
vcAllocDelayStdDevs=vcAllocDelayStdDevs({0,0,0,0,0,0,0,0,0,0,0,0,0,0,0,0});
swAllocDelayStdDevs=swAllocDelayStdDevs({0,0,0,0,0,0,0,0,0,0,0,0,0,0,0,0});
stFinalDelayStdDevs=stFinalDelayStdDevs({0,0,0,0,0,0,0,0,0,0,0,0,0,0,0,0});

  
swAllocThresholds=swAllocThresholds({1,1,1,1,1,1,1,1,1,1,1,1,1,1,1,1});
swAllocThresholdStdDevs=swAllocThresholdStdDevs({0,0,0,0,0,0,0,0,0,0,0,0,0,0,0,0});
swAllocMetaStableThresholds=swAllocMetaStableThresholds({1,1,1,1,1,1,1,1,1,1,1,1,1,1,1,1});
swAllocMetaStableMaxPenalities=swAllocMetaStableMaxPenalities({0,0,0,0,0,0,0,0,0,0,0,0,0,0,0,0});

END Configuration File: chip2
BEGIN Configuration File: chip3
//topology
topology = mesh;
k = 4;
n = 2;
type = chip;
start_point = 32;
// Routing
cnum=3;
routing_function = dor;

// Flow control
num_vcs     = 2;
vc_buf_size = 8;
wait_for_tail_credit = 1;
hold_switch_for_packet = 1;

// Router architecture
vc_allocator = islip;
sw_allocator = islip;
alloc_iters  = 1;

credit_delay   = 0;
routing_delay  = 1;
vc_alloc_delay = 1;
sw_alloc_delay = 1;
st_final_delay = 1;

input_speedup     = 1;
output_speedup    = 1;
internal_speedup  = 1.0;
vc_busy_when_full = 0;


//granulaity
latency_thres=20000.0;
deadlock_warn_timeout=20000;
traceStretch=3;

//gating
doGating=0;
sleepThreshold=40;
breakEvenThreshold=80;



//Syn Traffic
sim_type=latency;
traffic=uniform;
packet_size = 1;
sample_period=50000;
warmup_periods=3;
max_samples=14;
injection_rate=0.01;

creditDelays=creditDelays({0,0,0,0,0,0,0,0,0,0,0,0,0,0,0,0,0,0,0,0,0,0,0,0,0,0,0,0,0,0,0,0,0,0,0,0,0,0,0,0,0,0,0,0,0,0,0,0,0,0,0,0,0,0,0,0,0,0,0,0,0,0,0,0}});
routingDelays=routingDelays({13,13,13,13,13,13,13,13,13,13,13,13,13,13,13,13,13,13,13,13,13,13,13,13,13,13,13,13,13,13,13,13,13,13,13,13,13,13,13,13,13,13,13,13,13,13,13,13,13,13,13,13,13,13,13,13,13,13,13,13,13,13,13,13});
vcAllocDelays=vcAllocDelays({10,10,10,10,10,10,10,10,10,10,10,10,10,10,10,10,10,10,10,10,10,10,10,10,10,10,10,10,10,10,10,10,10,10,10,10,10,10,10,10,10,10,10,10,10,10,10,10,10,10,10,10,10,10,10,10,10,10,10,10,10,10,10,10});
swAllocDelays=swAllocDelays({15,15,15,15,15,15,15,15,15,15,15,15,15,15,15,15,15,15,15,15,15,15,15,15,15,15,15,15,15,15,15,15,15,15,15,15,15,15,15,15,15,15,15,15,15,15,15,15,15,15,15,15,15,15,15,15,15,15,15,15,15,15,15,15});
stFinalDelays=stFinalDelays({12,12,12,12,12,12,12,12,12,12,12,12,12,12,12,12,12,12,12,12,12,12,12,12,12,12,12,12,12,12,12,12,12,12,12,12,12,12,12,12,12,12,12,12,12,12,12,12,12,12,12,12,12,12,12,12,12,12,12,12,12,12,12,12});
//channelDelays=channelDelays({1,1,1,1,1,1,1,1,1,1,1,1,1,1,1,1});

isAsync=isAsync({1,1,1,1,1,1,1,1,1,1,1,1,1,1,1,1});
isMetaUnstable=isMetaUnstable({0,0,0,0,0,0,0,0,0,0,0,0,0,0,0,0});

creditDelayStdDevs=creditDelayStdDevs({0,0,0,0,0,0,0,0,0,0,0,0,0,0,0,0});
routingDelayStdDevs=routingDelayStdDevs({0,0,0,0,0,0,0,0,0,0,0,0,0,0,0,0});
vcAllocDelayStdDevs=vcAllocDelayStdDevs({0,0,0,0,0,0,0,0,0,0,0,0,0,0,0,0});
swAllocDelayStdDevs=swAllocDelayStdDevs({0,0,0,0,0,0,0,0,0,0,0,0,0,0,0,0});
stFinalDelayStdDevs=stFinalDelayStdDevs({0,0,0,0,0,0,0,0,0,0,0,0,0,0,0,0});

  
swAllocThresholds=swAllocThresholds({1,1,1,1,1,1,1,1,1,1,1,1,1,1,1,1});
swAllocThresholdStdDevs=swAllocThresholdStdDevs({0,0,0,0,0,0,0,0,0,0,0,0,0,0,0,0});
swAllocMetaStableThresholds=swAllocMetaStableThresholds({1,1,1,1,1,1,1,1,1,1,1,1,1,1,1,1});
swAllocMetaStableMaxPenalities=swAllocMetaStableMaxPenalities({0,0,0,0,0,0,0,0,0,0,0,0,0,0,0,0});

END Configuration File: chip3
BEGIN Configuration File: chip4
//topology
topology = mesh;
k = 4;
n = 2;
type = chip;
start_point = 36;
cnum=4;
// Routing
routing_function = dor;

// Flow control
num_vcs     = 2;
vc_buf_size = 8;
wait_for_tail_credit = 1;
hold_switch_for_packet = 1;

// Router architecture
vc_allocator = islip;
sw_allocator = islip;
alloc_iters  = 1;

credit_delay   = 0;
routing_delay  = 1;
vc_alloc_delay = 1;
sw_alloc_delay = 1;
st_final_delay = 1;

input_speedup     = 1;
output_speedup    = 1;
internal_speedup  = 1.0;
vc_busy_when_full = 0;


//granulaity
latency_thres=20000.0;
deadlock_warn_timeout=20000;
traceStretch=3;

//gating
doGating=0;
sleepThreshold=40;
breakEvenThreshold=80;



//Syn Traffic
sim_type=latency;
traffic=uniform;
packet_size = 1;
sample_period=50000;
warmup_periods=3;
max_samples=14;
injection_rate=0.01;

creditDelays=creditDelays({0,0,0,0,0,0,0,0,0,0,0,0,0,0,0,0,0,0,0,0,0,0,0,0,0,0,0,0,0,0,0,0,0,0,0,0,0,0,0,0,0,0,0,0,0,0,0,0,0,0,0,0,0,0,0,0,0,0,0,0,0,0,0,0}});
routingDelays=routingDelays({13,13,13,13,13,13,13,13,13,13,13,13,13,13,13,13,13,13,13,13,13,13,13,13,13,13,13,13,13,13,13,13,13,13,13,13,13,13,13,13,13,13,13,13,13,13,13,13,13,13,13,13,13,13,13,13,13,13,13,13,13,13,13,13});
vcAllocDelays=vcAllocDelays({10,10,10,10,10,10,10,10,10,10,10,10,10,10,10,10,10,10,10,10,10,10,10,10,10,10,10,10,10,10,10,10,10,10,10,10,10,10,10,10,10,10,10,10,10,10,10,10,10,10,10,10,10,10,10,10,10,10,10,10,10,10,10,10});
swAllocDelays=swAllocDelays({15,15,15,15,15,15,15,15,15,15,15,15,15,15,15,15,15,15,15,15,15,15,15,15,15,15,15,15,15,15,15,15,15,15,15,15,15,15,15,15,15,15,15,15,15,15,15,15,15,15,15,15,15,15,15,15,15,15,15,15,15,15,15,15});
stFinalDelays=stFinalDelays({12,12,12,12,12,12,12,12,12,12,12,12,12,12,12,12,12,12,12,12,12,12,12,12,12,12,12,12,12,12,12,12,12,12,12,12,12,12,12,12,12,12,12,12,12,12,12,12,12,12,12,12,12,12,12,12,12,12,12,12,12,12,12,12});
//channelDelays=channelDelays({1,1,1,1,1,1,1,1,1,1,1,1,1,1,1,1});

isAsync=isAsync({1,1,1,1,1,1,1,1,1,1,1,1,1,1,1,1});
isMetaUnstable=isMetaUnstable({0,0,0,0,0,0,0,0,0,0,0,0,0,0,0,0});

creditDelayStdDevs=creditDelayStdDevs({0,0,0,0,0,0,0,0,0,0,0,0,0,0,0,0});
routingDelayStdDevs=routingDelayStdDevs({0,0,0,0,0,0,0,0,0,0,0,0,0,0,0,0});
vcAllocDelayStdDevs=vcAllocDelayStdDevs({0,0,0,0,0,0,0,0,0,0,0,0,0,0,0,0});
swAllocDelayStdDevs=swAllocDelayStdDevs({0,0,0,0,0,0,0,0,0,0,0,0,0,0,0,0});
stFinalDelayStdDevs=stFinalDelayStdDevs({0,0,0,0,0,0,0,0,0,0,0,0,0,0,0,0});

  
swAllocThresholds=swAllocThresholds({1,1,1,1,1,1,1,1,1,1,1,1,1,1,1,1});
swAllocThresholdStdDevs=swAllocThresholdStdDevs({0,0,0,0,0,0,0,0,0,0,0,0,0,0,0,0});
swAllocMetaStableThresholds=swAllocMetaStableThresholds({1,1,1,1,1,1,1,1,1,1,1,1,1,1,1,1});
swAllocMetaStableMaxPenalities=swAllocMetaStableMaxPenalities({0,0,0,0,0,0,0,0,0,0,0,0,0,0,0,0});

END Configuration File: chip4
rid:0 add output _25chan1
rid:0 add input _25chan0
rid:1 add output _25chan3
rid:1 add input _25chan2
rid:2 add output _25chan5
rid:2 add input _25chan4
rid:3 add output _25chan7
rid:3 add input _25chan6
rid:4 add output _25chan33
rid:4 add input _25chan32
rid:5 add output _25chan35
rid:5 add input _25chan34
rid:6 add output _25chan37
rid:6 add input _25chan36
rid:7 add output _25chan39
rid:7 add input _25chan38
rid:8 add output _25chan9
rid:8 add input _25chan8
rid:9 add output _25chan11
rid:9 add input _25chan10
rid:10 add output _25chan13
rid:10 add input _25chan12
rid:11 add output _25chan15
rid:11 add input _25chan14
rid:12 add output _25chan41
rid:12 add input _25chan40
rid:13 add output _25chan43
rid:13 add input _25chan42
rid:14 add output _25chan45
rid:14 add input _25chan44
rid:15 add output _25chan47
rid:15 add input _25chan46
rid:16 add output _25chan17
rid:16 add input _25chan16
rid:17 add output _25chan19
rid:17 add input _25chan18
rid:18 add output _25chan21
rid:18 add input _25chan20
rid:19 add output _25chan23
rid:19 add input _25chan22
rid:20 add output _25chan49
rid:20 add input _25chan48
rid:21 add output _25chan51
rid:21 add input _25chan50
rid:22 add output _25chan53
rid:22 add input _25chan52
rid:23 add output _25chan55
rid:23 add input _25chan54
rid:24 add output _25chan25
rid:24 add input _25chan24
rid:25 add output _25chan27
rid:25 add input _25chan26
rid:26 add output _25chan29
rid:26 add input _25chan28
rid:27 add output _25chan31
rid:27 add input _25chan30
rid:28 add output _25chan57
rid:28 add input _25chan56
rid:29 add output _25chan59
rid:29 add input _25chan58
rid:30 add output _25chan61
rid:30 add input _25chan60
rid:31 add output _25chan63
rid:31 add input _25chan62
rid:32 add output _25chan65
rid:32 add input _25chan64
rid:33 add output _25chan67
rid:33 add input _25chan66
rid:34 add output _25chan69
rid:34 add input _25chan68
rid:35 add output _25chan71
rid:35 add input _25chan70
rid:36 add output _25chan97
rid:36 add input _25chan96
rid:37 add output _25chan99
rid:37 add input _25chan98
rid:38 add output _25chan101
rid:38 add input _25chan100
rid:39 add output _25chan103
rid:39 add input _25chan102
rid:40 add output _25chan73
rid:40 add input _25chan72
rid:41 add output _25chan75
rid:41 add input _25chan74
rid:42 add output _25chan77
rid:42 add input _25chan76
rid:43 add output _25chan79
rid:43 add input _25chan78
rid:44 add output _25chan105
rid:44 add input _25chan104
rid:45 add output _25chan107
rid:45 add input _25chan106
rid:46 add output _25chan109
rid:46 add input _25chan108
rid:47 add output _25chan111
rid:47 add input _25chan110
rid:48 add output _25chan81
rid:48 add input _25chan80
rid:49 add output _25chan83
rid:49 add input _25chan82
rid:50 add output _25chan85
rid:50 add input _25chan84
rid:51 add output _25chan87
rid:51 add input _25chan86
rid:52 add output _25chan113
rid:52 add input _25chan112
rid:53 add output _25chan115
rid:53 add input _25chan114
rid:54 add output _25chan117
rid:54 add input _25chan116
rid:55 add output _25chan119
rid:55 add input _25chan118
rid:56 add output _25chan89
rid:56 add input _25chan88
rid:57 add output _25chan91
rid:57 add input _25chan90
rid:58 add output _25chan93
rid:58 add input _25chan92
rid:59 add output _25chan95
rid:59 add input _25chan94
rid:60 add output _25chan121
rid:60 add input _25chan120
rid:61 add output _25chan123
rid:61 add input _25chan122
rid:62 add output _25chan125
rid:62 add input _25chan124
rid:63 add output _25chan127
rid:63 add input _25chan126
rid:0 add output _25chan0
rid:0 add input _25chan1
rid:1 add output _25chan2
rid:1 add input _25chan3
rid:2 add output _25chan4
rid:2 add input _25chan5
rid:3 add output _25chan6
rid:3 add input _25chan7
rid:4 add output _25chan8
rid:4 add input _25chan9
rid:5 add output _25chan10
rid:5 add input _25chan11
rid:6 add output _25chan12
rid:6 add input _25chan13
rid:7 add output _25chan14
rid:7 add input _25chan15
rid:8 add output _25chan16
rid:8 add input _25chan17
rid:9 add output _25chan18
rid:9 add input _25chan19
rid:10 add output _25chan20
rid:10 add input _25chan21
rid:11 add output _25chan22
rid:11 add input _25chan23
rid:12 add output _25chan24
rid:12 add input _25chan25
rid:13 add output _25chan26
rid:13 add input _25chan27
rid:14 add output _25chan28
rid:14 add input _25chan29
rid:15 add output _25chan30
rid:15 add input _25chan31
rid:0 add output _25chan32
rid:0 add input _25chan33
rid:1 add output _25chan34
rid:1 add input _25chan35
rid:2 add output _25chan36
rid:2 add input _25chan37
rid:3 add output _25chan38
rid:3 add input _25chan39
rid:4 add output _25chan40
rid:4 add input _25chan41
rid:5 add output _25chan42
rid:5 add input _25chan43
rid:6 add output _25chan44
rid:6 add input _25chan45
rid:7 add output _25chan46
rid:7 add input _25chan47
rid:8 add output _25chan48
rid:8 add input _25chan49
rid:9 add output _25chan50
rid:9 add input _25chan51
rid:10 add output _25chan52
rid:10 add input _25chan53
rid:11 add output _25chan54
rid:11 add input _25chan55
rid:12 add output _25chan56
rid:12 add input _25chan57
rid:13 add output _25chan58
rid:13 add input _25chan59
rid:14 add output _25chan60
rid:14 add input _25chan61
rid:15 add output _25chan62
rid:15 add input _25chan63
rid:0 add output _25chan64
rid:0 add input _25chan65
rid:1 add output _25chan66
rid:1 add input _25chan67
rid:2 add output _25chan68
rid:2 add input _25chan69
rid:3 add output _25chan70
rid:3 add input _25chan71
rid:4 add output _25chan72
rid:4 add input _25chan73
rid:5 add output _25chan74
rid:5 add input _25chan75
rid:6 add output _25chan76
rid:6 add input _25chan77
rid:7 add output _25chan78
rid:7 add input _25chan79
rid:8 add output _25chan80
rid:8 add input _25chan81
rid:9 add output _25chan82
rid:9 add input _25chan83
rid:10 add output _25chan84
rid:10 add input _25chan85
rid:11 add output _25chan86
rid:11 add input _25chan87
rid:12 add output _25chan88
rid:12 add input _25chan89
rid:13 add output _25chan90
rid:13 add input _25chan91
rid:14 add output _25chan92
rid:14 add input _25chan93
rid:15 add output _25chan94
rid:15 add input _25chan95
rid:0 add output _25chan96
rid:0 add input _25chan97
rid:1 add output _25chan98
rid:1 add input _25chan99
rid:2 add output _25chan100
rid:2 add input _25chan101
rid:3 add output _25chan102
rid:3 add input _25chan103
rid:4 add output _25chan104
rid:4 add input _25chan105
rid:5 add output _25chan106
rid:5 add input _25chan107
rid:6 add output _25chan108
rid:6 add input _25chan109
rid:7 add output _25chan110
rid:7 add input _25chan111
rid:8 add output _25chan112
rid:8 add input _25chan113
rid:9 add output _25chan114
rid:9 add input _25chan115
rid:10 add output _25chan116
rid:10 add input _25chan117
rid:11 add output _25chan118
rid:11 add input _25chan119
rid:12 add output _25chan120
rid:12 add input _25chan121
rid:13 add output _25chan122
rid:13 add input _25chan123
rid:14 add output _25chan124
rid:14 add input _25chan125
rid:15 add output _25chan126
rid:15 add input _25chan127

Tick: 0M
===== Time: 5000 =====
Class 0:
Minimum packet latency = 52
Average packet latency = 524.928
Maximum packet latency = 2050
Minimum network latency = 53
Average network latency = 521.046
Maximum network latency = 2051
Slowest packet = 1267
Minimum flit latency = 53
Average flit latency = 521.046
Maximum flit latency = 2051
Slowest flit = 1267
Minimum fragmentation = 0
Average fragmentation = 0
Maximum fragmentation = 0
Minimum injected packet rate = 0 (at node 0)
Average injected packet rate = 0.00387656
Maximum injected packet rate = 0.011 (at node 96)
Minimum accepted packet rate = 0 (at node 0)
Average accepted packet rate = 0.00341719
Maximum accepted packet rate = 0.0102 (at node 115)
Minimum injected flit rate = 0 (at node 0)
Average injected flit rate = 0.00387656
Maximum injected flit rate = 0.011 (at node 96)
Minimum accepted flit rate = 0 (at node 0)
Average accepted flit rate = 0.00341719
Maximum accepted flit rate = 0.0102 (at node 115)
Total number of injected packets = 2481
Total number of injected flits = 2481
Average injected packet length = 1
Total number of accepted packets = 2187
Total number of accepted flits = 2187
Average accepted packet length = 1
Total in-flight flits = 299 (0 measured)
class 0 latency change    = 1
class 0 throughput change = 1
Warmed up ...Time used is 5000 cycles
===== Time: 10000 =====
Class 0:
Minimum packet latency = 52
Average packet latency = 657.733
Maximum packet latency = 4451
Minimum network latency = 53
Average network latency = 589.875
Maximum network latency = 2923
Slowest packet = 2486
Minimum flit latency = 53
Average flit latency = 623.931
Maximum flit latency = 3137
Slowest flit = 1631
Minimum fragmentation = 0
Average fragmentation = 0
Maximum fragmentation = 0
Minimum injected packet rate = 0 (at node 0)
Average injected packet rate = 0.00377188
Maximum injected packet rate = 0.01 (at node 84)
Minimum accepted packet rate = 0 (at node 0)
Average accepted packet rate = 0.00378437
Maximum accepted packet rate = 0.0102 (at node 118)
Minimum injected flit rate = 0 (at node 0)
Average injected flit rate = 0.00377188
Maximum injected flit rate = 0.01 (at node 84)
Minimum accepted flit rate = 0 (at node 0)
Average accepted flit rate = 0.00378437
Maximum accepted flit rate = 0.0102 (at node 118)
Total number of injected packets = 2414
Total number of injected flits = 2414
Average injected packet length = 1
Total number of accepted packets = 2422
Total number of accepted flits = 2422
Average accepted packet length = 1
Total in-flight flits = 293 (293 measured)
class 0 latency change    = 0.201913
class 0 throughput change = 0.0970273
===== Time: 15000 =====
Class 0:
Minimum packet latency = 52
Average packet latency = 732.608
Maximum packet latency = 5737
Minimum network latency = 53
Average network latency = 613.307
Maximum network latency = 3234
Slowest packet = 2486
Minimum flit latency = 53
Average flit latency = 628.537
Maximum flit latency = 3234
Slowest flit = 3815
Minimum fragmentation = 0
Average fragmentation = 0
Maximum fragmentation = 0
Minimum injected packet rate = 0 (at node 0)
Average injected packet rate = 0.00387734
Maximum injected packet rate = 0.0099 (at node 110)
Minimum accepted packet rate = 0 (at node 0)
Average accepted packet rate = 0.00387187
Maximum accepted packet rate = 0.0102 (at node 113)
Minimum injected flit rate = 0 (at node 0)
Average injected flit rate = 0.00387734
Maximum injected flit rate = 0.0099 (at node 110)
Minimum accepted flit rate = 0 (at node 0)
Average accepted flit rate = 0.00387187
Maximum accepted flit rate = 0.0102 (at node 113)
Total number of injected packets = 4963
Total number of injected flits = 4963
Average injected packet length = 1
Total number of accepted packets = 4956
Total number of accepted flits = 4956
Average accepted packet length = 1
Total in-flight flits = 309 (309 measured)
class 0 latency change    = 0.102203
class 0 throughput change = 0.0225989
===== Time: 20000 =====
Class 0:
Minimum packet latency = 52
Average packet latency = 768.222
Maximum packet latency = 6793
Minimum network latency = 53
Average network latency = 622.484
Maximum network latency = 4193
Slowest packet = 2486
Minimum flit latency = 53
Average flit latency = 632.262
Maximum flit latency = 4193
Slowest flit = 6935
Minimum fragmentation = 0
Average fragmentation = 0
Maximum fragmentation = 0
Minimum injected packet rate = 0 (at node 0)
Average injected packet rate = 0.00389635
Maximum injected packet rate = 0.00973333 (at node 110)
Minimum accepted packet rate = 0 (at node 0)
Average accepted packet rate = 0.00387448
Maximum accepted packet rate = 0.00926667 (at node 103)
Minimum injected flit rate = 0 (at node 0)
Average injected flit rate = 0.00389635
Maximum injected flit rate = 0.00973333 (at node 110)
Minimum accepted flit rate = 0 (at node 0)
Average accepted flit rate = 0.00387448
Maximum accepted flit rate = 0.00926667 (at node 103)
Total number of injected packets = 7481
Total number of injected flits = 7481
Average injected packet length = 1
Total number of accepted packets = 7439
Total number of accepted flits = 7439
Average accepted packet length = 1
Total in-flight flits = 347 (347 measured)
class 0 latency change    = 0.0463586
class 0 throughput change = 0.000672133
===== Time: 25000 =====
Class 0:
Minimum packet latency = 52
Average packet latency = 805.965
Maximum packet latency = 7805
Minimum network latency = 53
Average network latency = 640.147
Maximum network latency = 4193
Slowest packet = 2486
Minimum flit latency = 53
Average flit latency = 646.928
Maximum flit latency = 4193
Slowest flit = 6935
Minimum fragmentation = 0
Average fragmentation = 0
Maximum fragmentation = 0
Minimum injected packet rate = 0 (at node 0)
Average injected packet rate = 0.00390781
Maximum injected packet rate = 0.01005 (at node 110)
Minimum accepted packet rate = 0 (at node 0)
Average accepted packet rate = 0.00388555
Maximum accepted packet rate = 0.0094 (at node 88)
Minimum injected flit rate = 0 (at node 0)
Average injected flit rate = 0.00390781
Maximum injected flit rate = 0.01005 (at node 110)
Minimum accepted flit rate = 0 (at node 0)
Average accepted flit rate = 0.00388555
Maximum accepted flit rate = 0.0094 (at node 88)
Total number of injected packets = 10004
Total number of injected flits = 10004
Average injected packet length = 1
Total number of accepted packets = 9947
Total number of accepted flits = 9947
Average accepted packet length = 1
Total in-flight flits = 365 (365 measured)
class 0 latency change    = 0.0468307
class 0 throughput change = 0.00284843
===== Time: 30000 =====
Class 0:
Minimum packet latency = 52
Average packet latency = 836.886
Maximum packet latency = 9791
Minimum network latency = 53
Average network latency = 657.9
Maximum network latency = 4193
Slowest packet = 2486
Minimum flit latency = 53
Average flit latency = 662.872
Maximum flit latency = 4193
Slowest flit = 6935
Minimum fragmentation = 0
Average fragmentation = 0
Maximum fragmentation = 0
Minimum injected packet rate = 0 (at node 0)
Average injected packet rate = 0.00392531
Maximum injected packet rate = 0.00952 (at node 89)
Minimum accepted packet rate = 0 (at node 0)
Average accepted packet rate = 0.00390625
Maximum accepted packet rate = 0.00928 (at node 88)
Minimum injected flit rate = 0 (at node 0)
Average injected flit rate = 0.00392531
Maximum injected flit rate = 0.00952 (at node 89)
Minimum accepted flit rate = 0 (at node 0)
Average accepted flit rate = 0.00390625
Maximum accepted flit rate = 0.00928 (at node 88)
Total number of injected packets = 12561
Total number of injected flits = 12561
Average injected packet length = 1
Total number of accepted packets = 12500
Total number of accepted flits = 12500
Average accepted packet length = 1
Total in-flight flits = 373 (373 measured)
class 0 latency change    = 0.0369474
class 0 throughput change = 0.0053
===== Time: 35000 =====
Class 0:
Minimum packet latency = 52
Average packet latency = 887.923
Maximum packet latency = 10833
Minimum network latency = 53
Average network latency = 676.64
Maximum network latency = 4340
Slowest packet = 2486
Minimum flit latency = 53
Average flit latency = 680.417
Maximum flit latency = 4340
Slowest flit = 12921
Minimum fragmentation = 0
Average fragmentation = 0
Maximum fragmentation = 0
Minimum injected packet rate = 0 (at node 0)
Average injected packet rate = 0.00392656
Maximum injected packet rate = 0.00943333 (at node 89)
Minimum accepted packet rate = 0 (at node 0)
Average accepted packet rate = 0.00389844
Maximum accepted packet rate = 0.00883333 (at node 72)
Minimum injected flit rate = 0 (at node 0)
Average injected flit rate = 0.00392656
Maximum injected flit rate = 0.00943333 (at node 89)
Minimum accepted flit rate = 0 (at node 0)
Average accepted flit rate = 0.00389844
Maximum accepted flit rate = 0.00883333 (at node 72)
Total number of injected packets = 15078
Total number of injected flits = 15078
Average injected packet length = 1
Total number of accepted packets = 14970
Total number of accepted flits = 14970
Average accepted packet length = 1
Total in-flight flits = 420 (420 measured)
class 0 latency change    = 0.0574789
class 0 throughput change = 0.00200401
===== Time: 40000 =====
Class 0:
Minimum packet latency = 52
Average packet latency = 953.209
Maximum packet latency = 11640
Minimum network latency = 53
Average network latency = 692.252
Maximum network latency = 4340
Slowest packet = 2486
Minimum flit latency = 53
Average flit latency = 695.224
Maximum flit latency = 4340
Slowest flit = 12921
Minimum fragmentation = 0
Average fragmentation = 0
Maximum fragmentation = 0
Minimum injected packet rate = 0 (at node 0)
Average injected packet rate = 0.00391518
Maximum injected packet rate = 0.0092 (at node 110)
Minimum accepted packet rate = 0 (at node 0)
Average accepted packet rate = 0.00389688
Maximum accepted packet rate = 0.00885714 (at node 80)
Minimum injected flit rate = 0 (at node 0)
Average injected flit rate = 0.00391518
Maximum injected flit rate = 0.0092 (at node 110)
Minimum accepted flit rate = 0 (at node 0)
Average accepted flit rate = 0.00389688
Maximum accepted flit rate = 0.00885714 (at node 80)
Total number of injected packets = 17540
Total number of injected flits = 17540
Average injected packet length = 1
Total number of accepted packets = 17458
Total number of accepted flits = 17458
Average accepted packet length = 1
Total in-flight flits = 399 (399 measured)
class 0 latency change    = 0.0684902
class 0 throughput change = 0.000400962
===== Time: 45000 =====
Class 0:
Minimum packet latency = 52
Average packet latency = 1021.69
Maximum packet latency = 11640
Minimum network latency = 53
Average network latency = 702.946
Maximum network latency = 4340
Slowest packet = 2486
Minimum flit latency = 53
Average flit latency = 705.38
Maximum flit latency = 4340
Slowest flit = 12921
Minimum fragmentation = 0
Average fragmentation = 0
Maximum fragmentation = 0
Minimum injected packet rate = 0 (at node 0)
Average injected packet rate = 0.00392637
Maximum injected packet rate = 0.00915 (at node 110)
Minimum accepted packet rate = 0 (at node 0)
Average accepted packet rate = 0.00390566
Maximum accepted packet rate = 0.00875 (at node 102)
Minimum injected flit rate = 0 (at node 0)
Average injected flit rate = 0.00392637
Maximum injected flit rate = 0.00915 (at node 110)
Minimum accepted flit rate = 0 (at node 0)
Average accepted flit rate = 0.00390566
Maximum accepted flit rate = 0.00875 (at node 102)
Total number of injected packets = 20103
Total number of injected flits = 20103
Average injected packet length = 1
Total number of accepted packets = 19997
Total number of accepted flits = 19997
Average accepted packet length = 1
Total in-flight flits = 421 (421 measured)
class 0 latency change    = 0.0670286
class 0 throughput change = 0.00225034
===== Time: 50000 =====
Class 0:
Minimum packet latency = 52
Average packet latency = 1068.56
Maximum packet latency = 11640
Minimum network latency = 53
Average network latency = 713.137
Maximum network latency = 4340
Slowest packet = 2486
Minimum flit latency = 53
Average flit latency = 715.163
Maximum flit latency = 4340
Slowest flit = 12921
Minimum fragmentation = 0
Average fragmentation = 0
Maximum fragmentation = 0
Minimum injected packet rate = 0 (at node 0)
Average injected packet rate = 0.00393316
Maximum injected packet rate = 0.00906667 (at node 110)
Minimum accepted packet rate = 0 (at node 0)
Average accepted packet rate = 0.00391076
Maximum accepted packet rate = 0.00868889 (at node 102)
Minimum injected flit rate = 0 (at node 0)
Average injected flit rate = 0.00393316
Maximum injected flit rate = 0.00906667 (at node 110)
Minimum accepted flit rate = 0 (at node 0)
Average accepted flit rate = 0.00391076
Maximum accepted flit rate = 0.00868889 (at node 102)
Total number of injected packets = 22655
Total number of injected flits = 22655
Average injected packet length = 1
Total number of accepted packets = 22526
Total number of accepted flits = 22526
Average accepted packet length = 1
Total in-flight flits = 448 (448 measured)
class 0 latency change    = 0.0438604
class 0 throughput change = 0.00130405
===== Time: 55000 =====
Class 0:
Minimum packet latency = 52
Average packet latency = 1118.49
Maximum packet latency = 12094
Minimum network latency = 53
Average network latency = 723.09
Maximum network latency = 4340
Slowest packet = 2486
Minimum flit latency = 53
Average flit latency = 724.799
Maximum flit latency = 4340
Slowest flit = 12921
Minimum fragmentation = 0
Average fragmentation = 0
Maximum fragmentation = 0
Minimum injected packet rate = 0 (at node 0)
Average injected packet rate = 0.00391594
Maximum injected packet rate = 0.00912 (at node 110)
Minimum accepted packet rate = 0 (at node 0)
Average accepted packet rate = 0.00390016
Maximum accepted packet rate = 0.0087 (at node 102)
Minimum injected flit rate = 0 (at node 0)
Average injected flit rate = 0.00391594
Maximum injected flit rate = 0.00912 (at node 110)
Minimum accepted flit rate = 0 (at node 0)
Average accepted flit rate = 0.00390016
Maximum accepted flit rate = 0.0087 (at node 102)
Total number of injected packets = 25062
Total number of injected flits = 25062
Average injected packet length = 1
Total number of accepted packets = 24961
Total number of accepted flits = 24961
Average accepted packet length = 1
Total in-flight flits = 422 (422 measured)
class 0 latency change    = 0.0446432
class 0 throughput change = 0.0027198
Draining remaining packets ...
Class 0:
Remaining flits: 26535 26786 26889 26921 27016 27046 27050 27068 27096 27131 [...] (28 flits)
Measured flits: 26535 26786 26889 26921 27016 27046 27050 27068 27096 27131 [...] (28 flits)
Time taken is 56540 cycles
====== Traffic class 0 ======

Total number of flits generated = 27570, changed lanes = 0
Overall minimum packet latency = 52 (1 samples)
Overall average packet latency = 1143.8 (1 samples)
Overall maximum packet latency = 12868 (1 samples)
Overall minimum network latency = 53 (1 samples)
Overall average network latency = 729.629 (1 samples)
Overall maximum network latency = 4359 (1 samples)
Overall minimum flit latency = 53 (1 samples)
Overall average flit latency = 731.232 (1 samples)
Overall maximum flit latency = 4359 (1 samples)
Overall minimum fragmentation = 0 (1 samples)
Overall average fragmentation = 0 (1 samples)
Overall maximum fragmentation = 0 (1 samples)
Overall minimum injected packet rate = 0 (1 samples)
Overall average injected packet rate = 0.00391594 (1 samples)
Overall maximum injected packet rate = 0.00912 (1 samples)
Overall minimum accepted packet rate = 0 (1 samples)
Overall average accepted packet rate = 0.00390016 (1 samples)
Overall maximum accepted packet rate = 0.0087 (1 samples)
Overall minimum injected flit rate = 0 (1 samples)
Overall average injected flit rate = 0.00391594 (1 samples)
Overall maximum injected flit rate = 0.00912 (1 samples)
Overall minimum accepted flit rate = 0 (1 samples)
Overall average accepted flit rate = 0.00390016 (1 samples)
Overall maximum accepted flit rate = 0.0087 (1 samples)
Overall average injected packet size = 1 (1 samples)
Overall average accepted packet size = 1 (1 samples)
Overall average hops = 7.74203 (1 samples)
Overall throughput of the network (flits/cycle) = 0.5514
Overall throughput of the network (packets/cycle) = 0.5514
CSV Result Header , avgFLat,avgFInjRate
CSV Result ,731.232,0.00391594

Power Report Header, Frequency, Time, StaticIQ, DynamicIQ, StaticVC, DynamicVC, StaticSA, DynamicSA, StaticST, DynamicST, StaticLink, DynamicLink, NoFlits, ePerFlit
Power Report,3.9e+08,56540,0.131875,0.0131927,0.00749762,0.000385952,0.00224928,0.000342245,0.477597,0.00433747,0.0905466,0.00914907,27570,3.87838e-09

*****************************************
Total run time 23.5081
generate:0x7ffe9099ed80
delete:0x7ffe9099ed80
L = 2 K = 8.1 M = 2 N = 1
-----------------------------------------
- OCN Power Summary
- Completion Time:         56540
- Flit Widths:            64
- Channel Wire Power:      1.23252
- Channel Clock Power:     1.46183
- Channel Retiming Power:  0.0153134
- Channel Leakage Power:   0.551082
- Input Read Power:        0.0381983
- Input Write Power:       0.0381983
- Input Leakage Power:     0.113246
- Switch Power:            0.0824418
- Switch Control Power:    0.0428864
- Switch Leakage Power:    0.771052
- Output DFF Power:        0.00890283
- Output Clk Power:        0.727126
- Output Control Power:    0.0045946
- Total Power:             5.08739
-----------------------------------------

-----------------------------------------
- OCN Area Summary
- Channel Area:  0.109536
- Switch  Area:  0.241592
- Input  Area:   0.120796
- Output  Area:  0.0201327
- Total Area:    0.492056
-----------------------------------------
CSV Power Result Header , Completion Time, Channel Wire, Channel Clock, Channel Retiming, Channel Leakage, Input Read, Input Write, Input Leakage, Switch Power, Switch Control, Switch Leakage, Output DFF, Output Clk, Output Control
CSV Power Result , 56540, 1.23252, 1.46183, 0.0153134, 0.551082, 0.0381983, 0.0381983, 0.113246, 0.0824418, 0.0428864, 0.771052, 0.00890283, 0.727126, 0.0045946
delete:0x7ffe9099ed80
delete:0x7ffe9099ed80
delete:0x7ffe9099ed80
delete:0x7ffe9099ed80
delete:0x7ffe9099ed80
delete:0x7ffe9099ed80
