generate:0x7ffc13aacf20
generate:0x7ffc13aacfd8
generate:0x7ffc13aad090
generate:0x7ffc13aad148
generate:0x7ffc13aad200
generate:0x7ffc13aad370
BEGIN Configuration File: interposer2
//topology
topology = mesh;
k = 8;
n = 2;
type = interposer;
// Routing
routing_function = dor;

// Flow control
num_vcs     = 2;
vc_buf_size = 8;
wait_for_tail_credit = 1;
hold_switch_for_packet = 1;

// Router architecture
vc_allocator = islip;
sw_allocator = islip;
alloc_iters  = 1;

credit_delay   = 0;
routing_delay  = 1;
vc_alloc_delay = 1;
sw_alloc_delay = 1;
st_final_delay = 1;

input_speedup     = 1;
output_speedup    = 1;
internal_speedup  = 1.0;
vc_busy_when_full = 0;


//granulaity
latency_thres=20000.0;
deadlock_warn_timeout=20000;
traceStretch=3;

//gating
doGating=0;
sleepThreshold=40;
breakEvenThreshold=80;



//Syn Traffic
//sim_type=latency;
sim_type=throughput;
traffic=uniform;
packet_size = 1;
sample_period=5000;
warmup_periods=1;
max_samples=11;
injection_rate=0.002;

creditDelays=creditDelays({0,0,0,0,0,0,0,0,0,0,0,0,0,0,0,0,0,0,0,0,0,0,0,0,0,0,0,0,0,0,0,0,0,0,0,0,0,0,0,0,0,0,0,0,0,0,0,0,0,0,0,0,0,0,0,0,0,0,0,0,0,0,0,0}});
routingDelays=routingDelays({15,15,15,15,15,15,15,15,15,15,15,15,15,15,15,15,15,15,15,15,15,15,15,15,15,15,15,15,15,15,15,15,15,15,15,15,15,15,15,15,15,15,15,15,15,15,15,15,15,15,15,15,15,15,15,15,15,15,15,15,15,15,15,15});
vcAllocDelays=vcAllocDelays({15,15,15,15,15,15,15,15,15,15,15,15,15,15,15,15,15,15,15,15,15,15,15,15,15,15,15,15,15,15,15,15,15,15,15,15,15,15,15,15,15,15,15,15,15,15,15,15,15,15,15,15,15,15,15,15,15,15,15,15,15,15,15,15});
swAllocDelays=swAllocDelays({15,15,15,15,15,15,15,15,15,15,15,15,15,15,15,15,15,15,15,15,15,15,15,15,15,15,15,15,15,15,15,15,15,15,15,15,15,15,15,15,15,15,15,15,15,15,15,15,15,15,15,15,15,15,15,15,15,15,15,15,15,15,15,15});
stFinalDelays=stFinalDelays({15,15,15,15,15,15,15,15,15,15,15,15,15,15,15,15,15,15,15,15,15,15,15,15,15,15,15,15,15,15,15,15,15,15,15,15,15,15,15,15,15,15,15,15,15,15,15,15,15,15,15,15,15,15,15,15,15,15,15,15,15,15,15,15});

isAsync=isAsync({1,1,1,1,1,1,1,1,1,1,1,1,1,1,1,1,1,1,1,1,1,1,1,1,1,1,1,1,1,1,1,1,1,1,1,1,1,1,1,1,1,1,1,1,1,1,1,1,1,1,1,1,1,1,1,1,1,1,1,1,1,1,1,1});
isMetaUnstable=isMetaUnstable({0,0,0,0,0,0,0,0,0,0,0,0,0,0,0,0,0,0,0,0,0,0,0,0,0,0,0,0,0,0,0,0,0,0,0,0,0,0,0,0,0,0,0,0,0,0,0,0,0,0,0,0,0,0,0,0,0,0,0,0,0,0,0,0});

creditDelayStdDevs=creditDelayStdDevs({0,0,0,0,0,0,0,0,0,0,0,0,0,0,0,0,0,0,0,0,0,0,0,0,0,0,0,0,0,0,0,0,0,0,0,0,0,0,0,0,0,0,0,0,0,0,0,0,0,0,0,0,0,0,0,0,0,0,0,0,0,0,0,0});
routingDelayStdDevs=routingDelayStdDevs({0,0,0,0,0,0,0,0,0,0,0,0,0,0,0,0,0,0,0,0,0,0,0,0,0,0,0,0,0,0,0,0,0,0,0,0,0,0,0,0,0,0,0,0,0,0,0,0,0,0,0,0,0,0,0,0,0,0,0,0,0,0,0,0});
vcAllocDelayStdDevs=vcAllocDelayStdDevs({0,0,0,0,0,0,0,0,0,0,0,0,0,0,0,0,0,0,0,0,0,0,0,0,0,0,0,0,0,0,0,0,0,0,0,0,0,0,0,0,0,0,0,0,0,0,0,0,0,0,0,0,0,0,0,0,0,0,0,0,0,0,0,0});
swAllocDelayStdDevs=swAllocDelayStdDevs({0,0,0,0,0,0,0,0,0,0,0,0,0,0,0,0,0,0,0,0,0,0,0,0,0,0,0,0,0,0,0,0,0,0,0,0,0,0,0,0,0,0,0,0,0,0,0,0,0,0,0,0,0,0,0,0,0,0,0,0,0,0,0,0});
stFinalDelayStdDevs=stFinalDelayStdDevs({0,0,0,0,0,0,0,0,0,0,0,0,0,0,0,0,0,0,0,0,0,0,0,0,0,0,0,0,0,0,0,0,0,0,0,0,0,0,0,0,0,0,0,0,0,0,0,0,0,0,0,0,0,0,0,0,0,0,0,0,0,0,0,0});

  
swAllocThresholds=swAllocThresholds({1,1,1,1,1,1,1,1,1,1,1,1,1,1,1,1,1,1,1,1,1,1,1,1,1,1,1,1,1,1,1,1,1,1,1,1,1,1,1,1,1,1,1,1,1,1,1,1,1,1,1,1,1,1,1,1,1,1,1,1,1,1,1,1});
swAllocThresholdStdDevs=swAllocThresholdStdDevs({0,0,0,0,0,0,0,0,0,0,0,0,0,0,0,0,0,0,0,0,0,0,0,0,0,0,0,0,0,0,0,0,0,0,0,0,0,0,0,0,0,0,0,0,0,0,0,0,0,0,0,0,0,0,0,0,0,0,0,0,0,0,0,0});
swAllocMetaStableThresholds=swAllocMetaStableThresholds({1,1,1,1,1,1,1,1,1,1,1,1,1,1,1,1,1,1,1,1,1,1,1,1,1,1,1,1,1,1,1,1,1,1,1,1,1,1,1,1,1,1,1,1,1,1,1,1,1,1,1,1,1,1,1,1,1,1,1,1,1,1,1,1});
swAllocMetaStableMaxPenalities=swAllocMetaStableMaxPenalities({0,0,0,0,0,0,0,0,0,0,0,0,0,0,0,0,0,0,0,0,0,0,0,0,0,0,0,0,0,0,0,0,0,0,0,0,0,0,0,0,0,0,0,0,0,0,0,0,0,0,0,0,0,0,0,0,0,0,0,0,0,0,0,0});

END Configuration File: interposer2
BEGIN Configuration File: chip1_1
//topology
topology = mesh;
k = 4;
n = 2;
type = chip;
start_point = 0;
cnum=1;
// Routing
routing_function = dor;

// Flow control
num_vcs     = 2;
vc_buf_size = 8;
wait_for_tail_credit = 1;
hold_switch_for_packet = 1;

// Router architecture
vc_allocator = islip;
sw_allocator = islip;
alloc_iters  = 1;

credit_delay   = 1;
routing_delay  = 1;
vc_alloc_delay = 1;
sw_alloc_delay = 1;
st_final_delay = 1;

input_speedup     = 1;
output_speedup    = 1;
internal_speedup  = 1.0;
vc_busy_when_full = 0;


//granulaity
latency_thres=20000.0;
deadlock_warn_timeout=20000;
traceStretch=3;

//gating
doGating=0;
sleepThreshold=40;
breakEvenThreshold=80;



//Syn Traffic
sim_type=latency;
traffic=uniform;
packet_size = 1;
sample_period=50000;
warmup_periods=1;
max_samples=12;
injection_rate=0.01;

//creditDelays=creditDelays({0,0,0,0,0,0,0,0,0,0,0,0,0,0,0,0});
//routingDelays=routingDelays({1,1,1,1,1,1,1,1,1,1,1,1,1,1,1,1});
//vcAllocDelays=vcAllocDelays({1,1,1,1,1,1,1,1,1,1,1,1,1,1,1,1});
//swAllocDelays=swAllocDelays({1,1,1,1,1,1,1,1,1,1,1,1,1,1,1,1});
//stFinalDelays=stFinalDelays({1,1,1,1,1,1,1,1,1,1,1,1,1,1,1,1});
//channelDelays=channelDelays({1,1,1,1,1,1,1,1,1,1,1,1,1,1,1,1});

creditDelays=creditDelays({0,0,0,0,0,0,0,0,0,0,0,0,0,0,0,0,0,0,0,0,0,0,0,0,0,0,0,0,0,0,0,0,0,0,0,0,0,0,0,0,0,0,0,0,0,0,0,0,0,0,0,0,0,0,0,0,0,0,0,0,0,0,0,0}});
routingDelays=routingDelays({15,15,15,15,15,15,15,15,15,15,15,15,15,15,15,15,15,15,15,15,15,15,15,15,15,15,15,15,15,15,15,15,15,15,15,15,15,15,15,15,15,15,15,15,15,15,15,15,15,15,15,15,15,15,15,15,15,15,15,15,15,15,15,15});
vcAllocDelays=vcAllocDelays({15,15,15,15,15,15,15,15,15,15,15,15,15,15,15,15,15,15,15,15,15,15,15,15,15,15,15,15,15,15,15,15,15,15,15,15,15,15,15,15,15,15,15,15,15,15,15,15,15,15,15,15,15,15,15,15,15,15,15,15,15,15,15,15});
swAllocDelays=swAllocDelays({15,15,15,15,15,15,15,15,15,15,15,15,15,15,15,15,15,15,15,15,15,15,15,15,15,15,15,15,15,15,15,15,15,15,15,15,15,15,15,15,15,15,15,15,15,15,15,15,15,15,15,15,15,15,15,15,15,15,15,15,15,15,15,15});
stFinalDelays=stFinalDelays({15,15,15,15,15,15,15,15,15,15,15,15,15,15,15,15,15,15,15,15,15,15,15,15,15,15,15,15,15,15,15,15,15,15,15,15,15,15,15,15,15,15,15,15,15,15,15,15,15,15,15,15,15,15,15,15,15,15,15,15,15,15,15,15});


isAsync=isAsync({1,1,1,1,1,1,1,1,1,1,1,1,1,1,1,1});
isMetaUnstable=isMetaUnstable({0,0,0,0,0,0,0,0,0,0,0,0,0,0,0,0});

creditDelayStdDevs=creditDelayStdDevs({0,0,0,0,0,0,0,0,0,0,0,0,0,0,0,0});
routingDelayStdDevs=routingDelayStdDevs({0,0,0,0,0,0,0,0,0,0,0,0,0,0,0,0});
vcAllocDelayStdDevs=vcAllocDelayStdDevs({0,0,0,0,0,0,0,0,0,0,0,0,0,0,0,0});
swAllocDelayStdDevs=swAllocDelayStdDevs({0,0,0,0,0,0,0,0,0,0,0,0,0,0,0,0});
stFinalDelayStdDevs=stFinalDelayStdDevs({0,0,0,0,0,0,0,0,0,0,0,0,0,0,0,0});

  
swAllocThresholds=swAllocThresholds({1,1,1,1,1,1,1,1,1,1,1,1,1,1,1,1});
swAllocThresholdStdDevs=swAllocThresholdStdDevs({0,0,0,0,0,0,0,0,0,0,0,0,0,0,0,0});
swAllocMetaStableThresholds=swAllocMetaStableThresholds({1,1,1,1,1,1,1,1,1,1,1,1,1,1,1,1});
swAllocMetaStableMaxPenalities=swAllocMetaStableMaxPenalities({0,0,0,0,0,0,0,0,0,0,0,0,0,0,0,0});

END Configuration File: chip1_1
BEGIN Configuration File: chip2_1
//topology
topology = mesh;
k = 4;
n = 2;
type = chip;
//start_point = 2;
start_point = 4;
cnum = 2;
// Routing
routing_function = dor;

// Flow control
num_vcs     = 2;
vc_buf_size = 8;
wait_for_tail_credit = 1;
hold_switch_for_packet = 1;

// Router architecture
vc_allocator = islip;
sw_allocator = islip;
alloc_iters  = 1;

credit_delay   = 1;
routing_delay  = 1;
vc_alloc_delay = 1;
sw_alloc_delay = 1;
st_final_delay = 1;

input_speedup     = 1;
output_speedup    = 1;
internal_speedup  = 1.0;
vc_busy_when_full = 0;


//granulaity
latency_thres=20000.0;
deadlock_warn_timeout=20000;
traceStretch=3;

//gating
doGating=0;
sleepThreshold=40;
breakEvenThreshold=80;



//Syn Traffic
sim_type=latency;
traffic=uniform;
packet_size = 1;
sample_period=50000;
warmup_periods=3;
max_samples=14;
injection_rate=0.01;

creditDelays=creditDelays({0,0,0,0,0,0,0,0,0,0,0,0,0,0,0,0,0,0,0,0,0,0,0,0,0,0,0,0,0,0,0,0,0,0,0,0,0,0,0,0,0,0,0,0,0,0,0,0,0,0,0,0,0,0,0,0,0,0,0,0,0,0,0,0}});
routingDelays=routingDelays({15,15,15,15,15,15,15,15,15,15,15,15,15,15,15,15,15,15,15,15,15,15,15,15,15,15,15,15,15,15,15,15,15,15,15,15,15,15,15,15,15,15,15,15,15,15,15,15,15,15,15,15,15,15,15,15,15,15,15,15,15,15,15,15});
vcAllocDelays=vcAllocDelays({15,15,15,15,15,15,15,15,15,15,15,15,15,15,15,15,15,15,15,15,15,15,15,15,15,15,15,15,15,15,15,15,15,15,15,15,15,15,15,15,15,15,15,15,15,15,15,15,15,15,15,15,15,15,15,15,15,15,15,15,15,15,15,15});
swAllocDelays=swAllocDelays({15,15,15,15,15,15,15,15,15,15,15,15,15,15,15,15,15,15,15,15,15,15,15,15,15,15,15,15,15,15,15,15,15,15,15,15,15,15,15,15,15,15,15,15,15,15,15,15,15,15,15,15,15,15,15,15,15,15,15,15,15,15,15,15});
stFinalDelays=stFinalDelays({15,15,15,15,15,15,15,15,15,15,15,15,15,15,15,15,15,15,15,15,15,15,15,15,15,15,15,15,15,15,15,15,15,15,15,15,15,15,15,15,15,15,15,15,15,15,15,15,15,15,15,15,15,15,15,15,15,15,15,15,15,15,15,15});


isAsync=isAsync({1,1,1,1,1,1,1,1,1,1,1,1,1,1,1,1});
isMetaUnstable=isMetaUnstable({0,0,0,0,0,0,0,0,0,0,0,0,0,0,0,0});

creditDelayStdDevs=creditDelayStdDevs({0,0,0,0,0,0,0,0,0,0,0,0,0,0,0,0});
routingDelayStdDevs=routingDelayStdDevs({0,0,0,0,0,0,0,0,0,0,0,0,0,0,0,0});
vcAllocDelayStdDevs=vcAllocDelayStdDevs({0,0,0,0,0,0,0,0,0,0,0,0,0,0,0,0});
swAllocDelayStdDevs=swAllocDelayStdDevs({0,0,0,0,0,0,0,0,0,0,0,0,0,0,0,0});
stFinalDelayStdDevs=stFinalDelayStdDevs({0,0,0,0,0,0,0,0,0,0,0,0,0,0,0,0});

  
swAllocThresholds=swAllocThresholds({1,1,1,1,1,1,1,1,1,1,1,1,1,1,1,1});
swAllocThresholdStdDevs=swAllocThresholdStdDevs({0,0,0,0,0,0,0,0,0,0,0,0,0,0,0,0});
swAllocMetaStableThresholds=swAllocMetaStableThresholds({1,1,1,1,1,1,1,1,1,1,1,1,1,1,1,1});
swAllocMetaStableMaxPenalities=swAllocMetaStableMaxPenalities({0,0,0,0,0,0,0,0,0,0,0,0,0,0,0,0});

END Configuration File: chip2_1
BEGIN Configuration File: chip3_1
//topology
topology = mesh;
k = 4;
n = 2;
type = chip;
//start_point = 8;
start_point = 32;
cnum = 3;
// Routing
routing_function = dor;

// Flow control
num_vcs     = 2;
vc_buf_size = 8;
wait_for_tail_credit = 1;
hold_switch_for_packet = 1;

// Router architecture
vc_allocator = islip;
sw_allocator = islip;
alloc_iters  = 1;

credit_delay   = 1;
routing_delay  = 1;
vc_alloc_delay = 1;
sw_alloc_delay = 1;
st_final_delay = 1;

input_speedup     = 1;
output_speedup    = 1;
internal_speedup  = 1.0;
vc_busy_when_full = 0;


//granulaity
latency_thres=20000.0;
deadlock_warn_timeout=20000;
traceStretch=3;

//gating
doGating=0;
sleepThreshold=40;
breakEvenThreshold=80;



//Syn Traffic
sim_type=latency;
traffic=uniform;
packet_size = 1;
sample_period=50000;
warmup_periods=3;
max_samples=14;
injection_rate=0.01;

creditDelays=creditDelays({0,0,0,0,0,0,0,0,0,0,0,0,0,0,0,0,0,0,0,0,0,0,0,0,0,0,0,0,0,0,0,0,0,0,0,0,0,0,0,0,0,0,0,0,0,0,0,0,0,0,0,0,0,0,0,0,0,0,0,0,0,0,0,0}});
routingDelays=routingDelays({15,15,15,15,15,15,15,15,15,15,15,15,15,15,15,15,15,15,15,15,15,15,15,15,15,15,15,15,15,15,15,15,15,15,15,15,15,15,15,15,15,15,15,15,15,15,15,15,15,15,15,15,15,15,15,15,15,15,15,15,15,15,15,15});
vcAllocDelays=vcAllocDelays({15,15,15,15,15,15,15,15,15,15,15,15,15,15,15,15,15,15,15,15,15,15,15,15,15,15,15,15,15,15,15,15,15,15,15,15,15,15,15,15,15,15,15,15,15,15,15,15,15,15,15,15,15,15,15,15,15,15,15,15,15,15,15,15});
swAllocDelays=swAllocDelays({15,15,15,15,15,15,15,15,15,15,15,15,15,15,15,15,15,15,15,15,15,15,15,15,15,15,15,15,15,15,15,15,15,15,15,15,15,15,15,15,15,15,15,15,15,15,15,15,15,15,15,15,15,15,15,15,15,15,15,15,15,15,15,15});
stFinalDelays=stFinalDelays({15,15,15,15,15,15,15,15,15,15,15,15,15,15,15,15,15,15,15,15,15,15,15,15,15,15,15,15,15,15,15,15,15,15,15,15,15,15,15,15,15,15,15,15,15,15,15,15,15,15,15,15,15,15,15,15,15,15,15,15,15,15,15,15});


isAsync=isAsync({1,1,1,1,1,1,1,1,1,1,1,1,1,1,1,1});
isMetaUnstable=isMetaUnstable({0,0,0,0,0,0,0,0,0,0,0,0,0,0,0,0});

creditDelayStdDevs=creditDelayStdDevs({0,0,0,0,0,0,0,0,0,0,0,0,0,0,0,0});
routingDelayStdDevs=routingDelayStdDevs({0,0,0,0,0,0,0,0,0,0,0,0,0,0,0,0});
vcAllocDelayStdDevs=vcAllocDelayStdDevs({0,0,0,0,0,0,0,0,0,0,0,0,0,0,0,0});
swAllocDelayStdDevs=swAllocDelayStdDevs({0,0,0,0,0,0,0,0,0,0,0,0,0,0,0,0});
stFinalDelayStdDevs=stFinalDelayStdDevs({0,0,0,0,0,0,0,0,0,0,0,0,0,0,0,0});

  
swAllocThresholds=swAllocThresholds({1,1,1,1,1,1,1,1,1,1,1,1,1,1,1,1});
swAllocThresholdStdDevs=swAllocThresholdStdDevs({0,0,0,0,0,0,0,0,0,0,0,0,0,0,0,0});
swAllocMetaStableThresholds=swAllocMetaStableThresholds({1,1,1,1,1,1,1,1,1,1,1,1,1,1,1,1});
swAllocMetaStableMaxPenalities=swAllocMetaStableMaxPenalities({0,0,0,0,0,0,0,0,0,0,0,0,0,0,0,0});

END Configuration File: chip3_1
BEGIN Configuration File: chip4_1
//topology
topology = mesh;
k = 4;
n = 2;
type = chip;
//start_point = 10;
start_point = 36;
cnum = 4;
// Routing
routing_function = dor;

// Flow control
num_vcs     = 2;
vc_buf_size = 8;
wait_for_tail_credit = 1;
hold_switch_for_packet = 1;

// Router architecture
vc_allocator = islip;
sw_allocator = islip;
alloc_iters  = 1;

credit_delay   = 1;
routing_delay  = 1;
vc_alloc_delay = 1;
sw_alloc_delay = 1;
st_final_delay = 1;

input_speedup     = 1;
output_speedup    = 1;
internal_speedup  = 1.0;
vc_busy_when_full = 0;


//granulaity
latency_thres=20000.0;
deadlock_warn_timeout=20000;
traceStretch=3;

//gating
doGating=0;
sleepThreshold=40;
breakEvenThreshold=80;



//Syn Traffic
sim_type=latency;
traffic=uniform;
packet_size = 1;
sample_period=50000;
warmup_periods=3;
max_samples=14;
injection_rate=0.01;

creditDelays=creditDelays({0,0,0,0,0,0,0,0,0,0,0,0,0,0,0,0,0,0,0,0,0,0,0,0,0,0,0,0,0,0,0,0,0,0,0,0,0,0,0,0,0,0,0,0,0,0,0,0,0,0,0,0,0,0,0,0,0,0,0,0,0,0,0,0}});
routingDelays=routingDelays({15,15,15,15,15,15,15,15,15,15,15,15,15,15,15,15,15,15,15,15,15,15,15,15,15,15,15,15,15,15,15,15,15,15,15,15,15,15,15,15,15,15,15,15,15,15,15,15,15,15,15,15,15,15,15,15,15,15,15,15,15,15,15,15});
vcAllocDelays=vcAllocDelays({15,15,15,15,15,15,15,15,15,15,15,15,15,15,15,15,15,15,15,15,15,15,15,15,15,15,15,15,15,15,15,15,15,15,15,15,15,15,15,15,15,15,15,15,15,15,15,15,15,15,15,15,15,15,15,15,15,15,15,15,15,15,15,15});
swAllocDelays=swAllocDelays({15,15,15,15,15,15,15,15,15,15,15,15,15,15,15,15,15,15,15,15,15,15,15,15,15,15,15,15,15,15,15,15,15,15,15,15,15,15,15,15,15,15,15,15,15,15,15,15,15,15,15,15,15,15,15,15,15,15,15,15,15,15,15,15});
stFinalDelays=stFinalDelays({15,15,15,15,15,15,15,15,15,15,15,15,15,15,15,15,15,15,15,15,15,15,15,15,15,15,15,15,15,15,15,15,15,15,15,15,15,15,15,15,15,15,15,15,15,15,15,15,15,15,15,15,15,15,15,15,15,15,15,15,15,15,15,15});


isAsync=isAsync({1,1,1,1,1,1,1,1,1,1,1,1,1,1,1,1});
isMetaUnstable=isMetaUnstable({0,0,0,0,0,0,0,0,0,0,0,0,0,0,0,0});

creditDelayStdDevs=creditDelayStdDevs({0,0,0,0,0,0,0,0,0,0,0,0,0,0,0,0});
routingDelayStdDevs=routingDelayStdDevs({0,0,0,0,0,0,0,0,0,0,0,0,0,0,0,0});
vcAllocDelayStdDevs=vcAllocDelayStdDevs({0,0,0,0,0,0,0,0,0,0,0,0,0,0,0,0});
swAllocDelayStdDevs=swAllocDelayStdDevs({0,0,0,0,0,0,0,0,0,0,0,0,0,0,0,0});
stFinalDelayStdDevs=stFinalDelayStdDevs({0,0,0,0,0,0,0,0,0,0,0,0,0,0,0,0});

  
swAllocThresholds=swAllocThresholds({1,1,1,1,1,1,1,1,1,1,1,1,1,1,1,1});
swAllocThresholdStdDevs=swAllocThresholdStdDevs({0,0,0,0,0,0,0,0,0,0,0,0,0,0,0,0});
swAllocMetaStableThresholds=swAllocMetaStableThresholds({1,1,1,1,1,1,1,1,1,1,1,1,1,1,1,1});
swAllocMetaStableMaxPenalities=swAllocMetaStableMaxPenalities({0,0,0,0,0,0,0,0,0,0,0,0,0,0,0,0});

END Configuration File: chip4_1
rid:0 add output _25chan1
rid:0 add input _25chan0
rid:1 add output _25chan3
rid:1 add input _25chan2
rid:2 add output _25chan5
rid:2 add input _25chan4
rid:3 add output _25chan7
rid:3 add input _25chan6
rid:4 add output _25chan33
rid:4 add input _25chan32
rid:5 add output _25chan35
rid:5 add input _25chan34
rid:6 add output _25chan37
rid:6 add input _25chan36
rid:7 add output _25chan39
rid:7 add input _25chan38
rid:8 add output _25chan9
rid:8 add input _25chan8
rid:9 add output _25chan11
rid:9 add input _25chan10
rid:10 add output _25chan13
rid:10 add input _25chan12
rid:11 add output _25chan15
rid:11 add input _25chan14
rid:12 add output _25chan41
rid:12 add input _25chan40
rid:13 add output _25chan43
rid:13 add input _25chan42
rid:14 add output _25chan45
rid:14 add input _25chan44
rid:15 add output _25chan47
rid:15 add input _25chan46
rid:16 add output _25chan17
rid:16 add input _25chan16
rid:17 add output _25chan19
rid:17 add input _25chan18
rid:18 add output _25chan21
rid:18 add input _25chan20
rid:19 add output _25chan23
rid:19 add input _25chan22
rid:20 add output _25chan49
rid:20 add input _25chan48
rid:21 add output _25chan51
rid:21 add input _25chan50
rid:22 add output _25chan53
rid:22 add input _25chan52
rid:23 add output _25chan55
rid:23 add input _25chan54
rid:24 add output _25chan25
rid:24 add input _25chan24
rid:25 add output _25chan27
rid:25 add input _25chan26
rid:26 add output _25chan29
rid:26 add input _25chan28
rid:27 add output _25chan31
rid:27 add input _25chan30
rid:28 add output _25chan57
rid:28 add input _25chan56
rid:29 add output _25chan59
rid:29 add input _25chan58
rid:30 add output _25chan61
rid:30 add input _25chan60
rid:31 add output _25chan63
rid:31 add input _25chan62
rid:32 add output _25chan65
rid:32 add input _25chan64
rid:33 add output _25chan67
rid:33 add input _25chan66
rid:34 add output _25chan69
rid:34 add input _25chan68
rid:35 add output _25chan71
rid:35 add input _25chan70
rid:36 add output _25chan97
rid:36 add input _25chan96
rid:37 add output _25chan99
rid:37 add input _25chan98
rid:38 add output _25chan101
rid:38 add input _25chan100
rid:39 add output _25chan103
rid:39 add input _25chan102
rid:40 add output _25chan73
rid:40 add input _25chan72
rid:41 add output _25chan75
rid:41 add input _25chan74
rid:42 add output _25chan77
rid:42 add input _25chan76
rid:43 add output _25chan79
rid:43 add input _25chan78
rid:44 add output _25chan105
rid:44 add input _25chan104
rid:45 add output _25chan107
rid:45 add input _25chan106
rid:46 add output _25chan109
rid:46 add input _25chan108
rid:47 add output _25chan111
rid:47 add input _25chan110
rid:48 add output _25chan81
rid:48 add input _25chan80
rid:49 add output _25chan83
rid:49 add input _25chan82
rid:50 add output _25chan85
rid:50 add input _25chan84
rid:51 add output _25chan87
rid:51 add input _25chan86
rid:52 add output _25chan113
rid:52 add input _25chan112
rid:53 add output _25chan115
rid:53 add input _25chan114
rid:54 add output _25chan117
rid:54 add input _25chan116
rid:55 add output _25chan119
rid:55 add input _25chan118
rid:56 add output _25chan89
rid:56 add input _25chan88
rid:57 add output _25chan91
rid:57 add input _25chan90
rid:58 add output _25chan93
rid:58 add input _25chan92
rid:59 add output _25chan95
rid:59 add input _25chan94
rid:60 add output _25chan121
rid:60 add input _25chan120
rid:61 add output _25chan123
rid:61 add input _25chan122
rid:62 add output _25chan125
rid:62 add input _25chan124
rid:63 add output _25chan127
rid:63 add input _25chan126
rid:0 add output _25chan0
rid:0 add input _25chan1
rid:1 add output _25chan2
rid:1 add input _25chan3
rid:2 add output _25chan4
rid:2 add input _25chan5
rid:3 add output _25chan6
rid:3 add input _25chan7
rid:4 add output _25chan8
rid:4 add input _25chan9
rid:5 add output _25chan10
rid:5 add input _25chan11
rid:6 add output _25chan12
rid:6 add input _25chan13
rid:7 add output _25chan14
rid:7 add input _25chan15
rid:8 add output _25chan16
rid:8 add input _25chan17
rid:9 add output _25chan18
rid:9 add input _25chan19
rid:10 add output _25chan20
rid:10 add input _25chan21
rid:11 add output _25chan22
rid:11 add input _25chan23
rid:12 add output _25chan24
rid:12 add input _25chan25
rid:13 add output _25chan26
rid:13 add input _25chan27
rid:14 add output _25chan28
rid:14 add input _25chan29
rid:15 add output _25chan30
rid:15 add input _25chan31
rid:0 add output _25chan32
rid:0 add input _25chan33
rid:1 add output _25chan34
rid:1 add input _25chan35
rid:2 add output _25chan36
rid:2 add input _25chan37
rid:3 add output _25chan38
rid:3 add input _25chan39
rid:4 add output _25chan40
rid:4 add input _25chan41
rid:5 add output _25chan42
rid:5 add input _25chan43
rid:6 add output _25chan44
rid:6 add input _25chan45
rid:7 add output _25chan46
rid:7 add input _25chan47
rid:8 add output _25chan48
rid:8 add input _25chan49
rid:9 add output _25chan50
rid:9 add input _25chan51
rid:10 add output _25chan52
rid:10 add input _25chan53
rid:11 add output _25chan54
rid:11 add input _25chan55
rid:12 add output _25chan56
rid:12 add input _25chan57
rid:13 add output _25chan58
rid:13 add input _25chan59
rid:14 add output _25chan60
rid:14 add input _25chan61
rid:15 add output _25chan62
rid:15 add input _25chan63
rid:0 add output _25chan64
rid:0 add input _25chan65
rid:1 add output _25chan66
rid:1 add input _25chan67
rid:2 add output _25chan68
rid:2 add input _25chan69
rid:3 add output _25chan70
rid:3 add input _25chan71
rid:4 add output _25chan72
rid:4 add input _25chan73
rid:5 add output _25chan74
rid:5 add input _25chan75
rid:6 add output _25chan76
rid:6 add input _25chan77
rid:7 add output _25chan78
rid:7 add input _25chan79
rid:8 add output _25chan80
rid:8 add input _25chan81
rid:9 add output _25chan82
rid:9 add input _25chan83
rid:10 add output _25chan84
rid:10 add input _25chan85
rid:11 add output _25chan86
rid:11 add input _25chan87
rid:12 add output _25chan88
rid:12 add input _25chan89
rid:13 add output _25chan90
rid:13 add input _25chan91
rid:14 add output _25chan92
rid:14 add input _25chan93
rid:15 add output _25chan94
rid:15 add input _25chan95
rid:0 add output _25chan96
rid:0 add input _25chan97
rid:1 add output _25chan98
rid:1 add input _25chan99
rid:2 add output _25chan100
rid:2 add input _25chan101
rid:3 add output _25chan102
rid:3 add input _25chan103
rid:4 add output _25chan104
rid:4 add input _25chan105
rid:5 add output _25chan106
rid:5 add input _25chan107
rid:6 add output _25chan108
rid:6 add input _25chan109
rid:7 add output _25chan110
rid:7 add input _25chan111
rid:8 add output _25chan112
rid:8 add input _25chan113
rid:9 add output _25chan114
rid:9 add input _25chan115
rid:10 add output _25chan116
rid:10 add input _25chan117
rid:11 add output _25chan118
rid:11 add input _25chan119
rid:12 add output _25chan120
rid:12 add input _25chan121
rid:13 add output _25chan122
rid:13 add input _25chan123
rid:14 add output _25chan124
rid:14 add input _25chan125
rid:15 add output _25chan126
rid:15 add input _25chan127

Tick: 0M
===== Time: 5000 =====
Class 0:
Minimum packet latency = 62
Average packet latency = 474.629
Maximum packet latency = 1033
Minimum network latency = 63
Average network latency = 475.523
Maximum network latency = 1034
Slowest packet = 242
Minimum flit latency = 63
Average flit latency = 475.523
Maximum flit latency = 1034
Slowest flit = 242
Minimum fragmentation = 0
Average fragmentation = 0
Maximum fragmentation = 0
Minimum injected packet rate = 0 (at node 0)
Average injected packet rate = 0.00095
Maximum injected packet rate = 0.0036 (at node 107)
Minimum accepted packet rate = 0 (at node 0)
Average accepted packet rate = 0.000871875
Maximum accepted packet rate = 0.0028 (at node 88)
Minimum injected flit rate = 0 (at node 0)
Average injected flit rate = 0.00095
Maximum injected flit rate = 0.0036 (at node 107)
Minimum accepted flit rate = 0 (at node 0)
Average accepted flit rate = 0.000871875
Maximum accepted flit rate = 0.0028 (at node 88)
Total number of injected packets = 608
Total number of injected flits = 608
Average injected packet length = 1
Total number of accepted packets = 558
Total number of accepted flits = 558
Average accepted packet length = 1
Total in-flight flits = 50 (0 measured)
class 0 latency change    = 1
class 0 throughput change = 1
Warmed up ...Time used is 5000 cycles
===== Time: 10000 =====
Class 0:
Minimum packet latency = 62
Average packet latency = 460.835
Maximum packet latency = 1053
Minimum network latency = 63
Average network latency = 461.728
Maximum network latency = 1054
Slowest packet = 666
Minimum flit latency = 63
Average flit latency = 468.692
Maximum flit latency = 1054
Slowest flit = 666
Minimum fragmentation = 0
Average fragmentation = 0
Maximum fragmentation = 0
Minimum injected packet rate = 0 (at node 0)
Average injected packet rate = 0.00100156
Maximum injected packet rate = 0.0034 (at node 109)
Minimum accepted packet rate = 0 (at node 0)
Average accepted packet rate = 0.00096875
Maximum accepted packet rate = 0.0038 (at node 115)
Minimum injected flit rate = 0 (at node 0)
Average injected flit rate = 0.00100156
Maximum injected flit rate = 0.0034 (at node 109)
Minimum accepted flit rate = 0 (at node 0)
Average accepted flit rate = 0.00096875
Maximum accepted flit rate = 0.0038 (at node 115)
Total number of injected packets = 641
Total number of injected flits = 641
Average injected packet length = 1
Total number of accepted packets = 620
Total number of accepted flits = 620
Average accepted packet length = 1
Total in-flight flits = 71 (71 measured)
class 0 latency change    = 0.0299325
class 0 throughput change = 0.1
===== Time: 15000 =====
Class 0:
Minimum packet latency = 62
Average packet latency = 478.086
Maximum packet latency = 1053
Minimum network latency = 63
Average network latency = 479.002
Maximum network latency = 1054
Slowest packet = 666
Minimum flit latency = 63
Average flit latency = 481.687
Maximum flit latency = 1054
Slowest flit = 666
Minimum fragmentation = 0
Average fragmentation = 0
Maximum fragmentation = 0
Minimum injected packet rate = 0 (at node 0)
Average injected packet rate = 0.00100781
Maximum injected packet rate = 0.0031 (at node 79)
Minimum accepted packet rate = 0 (at node 0)
Average accepted packet rate = 0.00100469
Maximum accepted packet rate = 0.0031 (at node 115)
Minimum injected flit rate = 0 (at node 0)
Average injected flit rate = 0.00100781
Maximum injected flit rate = 0.0031 (at node 79)
Minimum accepted flit rate = 0 (at node 0)
Average accepted flit rate = 0.00100469
Maximum accepted flit rate = 0.0031 (at node 115)
Total number of injected packets = 1290
Total number of injected flits = 1290
Average injected packet length = 1
Total number of accepted packets = 1286
Total number of accepted flits = 1286
Average accepted packet length = 1
Total in-flight flits = 54 (54 measured)
class 0 latency change    = 0.0360828
class 0 throughput change = 0.0357698
===== Time: 20000 =====
Class 0:
Minimum packet latency = 62
Average packet latency = 479.206
Maximum packet latency = 1053
Minimum network latency = 63
Average network latency = 480.142
Maximum network latency = 1054
Slowest packet = 666
Minimum flit latency = 63
Average flit latency = 481.928
Maximum flit latency = 1054
Slowest flit = 666
Minimum fragmentation = 0
Average fragmentation = 0
Maximum fragmentation = 0
Minimum injected packet rate = 0 (at node 0)
Average injected packet rate = 0.00100312
Maximum injected packet rate = 0.0028 (at node 117)
Minimum accepted packet rate = 0 (at node 0)
Average accepted packet rate = 0.000990625
Maximum accepted packet rate = 0.00293333 (at node 84)
Minimum injected flit rate = 0 (at node 0)
Average injected flit rate = 0.00100312
Maximum injected flit rate = 0.0028 (at node 117)
Minimum accepted flit rate = 0 (at node 0)
Average accepted flit rate = 0.000990625
Maximum accepted flit rate = 0.00293333 (at node 84)
Total number of injected packets = 1926
Total number of injected flits = 1926
Average injected packet length = 1
Total number of accepted packets = 1902
Total number of accepted flits = 1902
Average accepted packet length = 1
Total in-flight flits = 74 (74 measured)
class 0 latency change    = 0.00233825
class 0 throughput change = 0.0141956
===== Time: 25000 =====
Class 0:
Minimum packet latency = 62
Average packet latency = 478.174
Maximum packet latency = 1053
Minimum network latency = 63
Average network latency = 479.105
Maximum network latency = 1054
Slowest packet = 666
Minimum flit latency = 63
Average flit latency = 480.449
Maximum flit latency = 1054
Slowest flit = 666
Minimum fragmentation = 0
Average fragmentation = 0
Maximum fragmentation = 0
Minimum injected packet rate = 0 (at node 0)
Average injected packet rate = 0.0010043
Maximum injected packet rate = 0.00265 (at node 79)
Minimum accepted packet rate = 0 (at node 0)
Average accepted packet rate = 0.00100195
Maximum accepted packet rate = 0.00275 (at node 113)
Minimum injected flit rate = 0 (at node 0)
Average injected flit rate = 0.0010043
Maximum injected flit rate = 0.00265 (at node 79)
Minimum accepted flit rate = 0 (at node 0)
Average accepted flit rate = 0.00100195
Maximum accepted flit rate = 0.00275 (at node 113)
Total number of injected packets = 2571
Total number of injected flits = 2571
Average injected packet length = 1
Total number of accepted packets = 2565
Total number of accepted flits = 2565
Average accepted packet length = 1
Total in-flight flits = 56 (56 measured)
class 0 latency change    = 0.00215844
class 0 throughput change = 0.011306
===== Time: 30000 =====
Class 0:
Minimum packet latency = 62
Average packet latency = 479.363
Maximum packet latency = 1053
Minimum network latency = 63
Average network latency = 480.308
Maximum network latency = 1054
Slowest packet = 666
Minimum flit latency = 63
Average flit latency = 481.361
Maximum flit latency = 1054
Slowest flit = 666
Minimum fragmentation = 0
Average fragmentation = 0
Maximum fragmentation = 0
Minimum injected packet rate = 0 (at node 0)
Average injected packet rate = 0.00100875
Maximum injected packet rate = 0.00256 (at node 73)
Minimum accepted packet rate = 0 (at node 0)
Average accepted packet rate = 0.00100531
Maximum accepted packet rate = 0.00276 (at node 113)
Minimum injected flit rate = 0 (at node 0)
Average injected flit rate = 0.00100875
Maximum injected flit rate = 0.00256 (at node 73)
Minimum accepted flit rate = 0 (at node 0)
Average accepted flit rate = 0.00100531
Maximum accepted flit rate = 0.00276 (at node 113)
Total number of injected packets = 3228
Total number of injected flits = 3228
Average injected packet length = 1
Total number of accepted packets = 3217
Total number of accepted flits = 3217
Average accepted packet length = 1
Total in-flight flits = 61 (61 measured)
class 0 latency change    = 0.0024803
class 0 throughput change = 0.00334162
===== Time: 35000 =====
Class 0:
Minimum packet latency = 62
Average packet latency = 478.938
Maximum packet latency = 1053
Minimum network latency = 63
Average network latency = 479.888
Maximum network latency = 1054
Slowest packet = 666
Minimum flit latency = 63
Average flit latency = 480.769
Maximum flit latency = 1054
Slowest flit = 666
Minimum fragmentation = 0
Average fragmentation = 0
Maximum fragmentation = 0
Minimum injected packet rate = 0 (at node 0)
Average injected packet rate = 0.00100911
Maximum injected packet rate = 0.0026 (at node 79)
Minimum accepted packet rate = 0 (at node 0)
Average accepted packet rate = 0.00100833
Maximum accepted packet rate = 0.0026 (at node 91)
Minimum injected flit rate = 0 (at node 0)
Average injected flit rate = 0.00100911
Maximum injected flit rate = 0.0026 (at node 79)
Minimum accepted flit rate = 0 (at node 0)
Average accepted flit rate = 0.00100833
Maximum accepted flit rate = 0.0026 (at node 91)
Total number of injected packets = 3875
Total number of injected flits = 3875
Average injected packet length = 1
Total number of accepted packets = 3872
Total number of accepted flits = 3872
Average accepted packet length = 1
Total in-flight flits = 53 (53 measured)
class 0 latency change    = 0.000887103
class 0 throughput change = 0.00299587
===== Time: 40000 =====
Class 0:
Minimum packet latency = 62
Average packet latency = 480.104
Maximum packet latency = 1053
Minimum network latency = 63
Average network latency = 481.053
Maximum network latency = 1054
Slowest packet = 666
Minimum flit latency = 63
Average flit latency = 481.787
Maximum flit latency = 1054
Slowest flit = 666
Minimum fragmentation = 0
Average fragmentation = 0
Maximum fragmentation = 0
Minimum injected packet rate = 0 (at node 0)
Average injected packet rate = 0.00102054
Maximum injected packet rate = 0.00262857 (at node 73)
Minimum accepted packet rate = 0 (at node 0)
Average accepted packet rate = 0.0010192
Maximum accepted packet rate = 0.0026 (at node 91)
Minimum injected flit rate = 0 (at node 0)
Average injected flit rate = 0.00102054
Maximum injected flit rate = 0.00262857 (at node 73)
Minimum accepted flit rate = 0 (at node 0)
Average accepted flit rate = 0.0010192
Maximum accepted flit rate = 0.0026 (at node 91)
Total number of injected packets = 4572
Total number of injected flits = 4572
Average injected packet length = 1
Total number of accepted packets = 4566
Total number of accepted flits = 4566
Average accepted packet length = 1
Total in-flight flits = 56 (56 measured)
class 0 latency change    = 0.00242781
class 0 throughput change = 0.0106585
===== Time: 45000 =====
Class 0:
Minimum packet latency = 62
Average packet latency = 480.195
Maximum packet latency = 1053
Minimum network latency = 63
Average network latency = 481.142
Maximum network latency = 1054
Slowest packet = 666
Minimum flit latency = 63
Average flit latency = 481.79
Maximum flit latency = 1054
Slowest flit = 666
Minimum fragmentation = 0
Average fragmentation = 0
Maximum fragmentation = 0
Minimum injected packet rate = 0 (at node 0)
Average injected packet rate = 0.00100918
Maximum injected packet rate = 0.002575 (at node 73)
Minimum accepted packet rate = 0 (at node 0)
Average accepted packet rate = 0.00100879
Maximum accepted packet rate = 0.0025 (at node 118)
Minimum injected flit rate = 0 (at node 0)
Average injected flit rate = 0.00100918
Maximum injected flit rate = 0.002575 (at node 73)
Minimum accepted flit rate = 0 (at node 0)
Average accepted flit rate = 0.00100879
Maximum accepted flit rate = 0.0025 (at node 118)
Total number of injected packets = 5167
Total number of injected flits = 5167
Average injected packet length = 1
Total number of accepted packets = 5165
Total number of accepted flits = 5165
Average accepted packet length = 1
Total in-flight flits = 52 (52 measured)
class 0 latency change    = 0.000188825
class 0 throughput change = 0.0103167
===== Time: 50000 =====
Class 0:
Minimum packet latency = 62
Average packet latency = 480.454
Maximum packet latency = 1053
Minimum network latency = 63
Average network latency = 481.399
Maximum network latency = 1054
Slowest packet = 666
Minimum flit latency = 63
Average flit latency = 481.969
Maximum flit latency = 1054
Slowest flit = 666
Minimum fragmentation = 0
Average fragmentation = 0
Maximum fragmentation = 0
Minimum injected packet rate = 0 (at node 0)
Average injected packet rate = 0.00101458
Maximum injected packet rate = 0.00255556 (at node 110)
Minimum accepted packet rate = 0 (at node 0)
Average accepted packet rate = 0.0010151
Maximum accepted packet rate = 0.0026 (at node 113)
Minimum injected flit rate = 0 (at node 0)
Average injected flit rate = 0.00101458
Maximum injected flit rate = 0.00255556 (at node 110)
Minimum accepted flit rate = 0 (at node 0)
Average accepted flit rate = 0.0010151
Maximum accepted flit rate = 0.0026 (at node 113)
Total number of injected packets = 5844
Total number of injected flits = 5844
Average injected packet length = 1
Total number of accepted packets = 5847
Total number of accepted flits = 5847
Average accepted packet length = 1
Total in-flight flits = 47 (47 measured)
class 0 latency change    = 0.000540118
class 0 throughput change = 0.00622114
===== Time: 55000 =====
Class 0:
Minimum packet latency = 62
Average packet latency = 480.151
Maximum packet latency = 1074
Minimum network latency = 63
Average network latency = 481.098
Maximum network latency = 1075
Slowest packet = 6608
Minimum flit latency = 63
Average flit latency = 481.618
Maximum flit latency = 1075
Slowest flit = 6608
Minimum fragmentation = 0
Average fragmentation = 0
Maximum fragmentation = 0
Minimum injected packet rate = 0 (at node 0)
Average injected packet rate = 0.00100734
Maximum injected packet rate = 0.00252 (at node 110)
Minimum accepted packet rate = 0 (at node 0)
Average accepted packet rate = 0.00100516
Maximum accepted packet rate = 0.00258 (at node 113)
Minimum injected flit rate = 0 (at node 0)
Average injected flit rate = 0.00100734
Maximum injected flit rate = 0.00252 (at node 110)
Minimum accepted flit rate = 0 (at node 0)
Average accepted flit rate = 0.00100516
Maximum accepted flit rate = 0.00258 (at node 113)
Total number of injected packets = 6447
Total number of injected flits = 6447
Average injected packet length = 1
Total number of accepted packets = 6433
Total number of accepted flits = 6433
Average accepted packet length = 1
Total in-flight flits = 64 (64 measured)
class 0 latency change    = 0.000631055
class 0 throughput change = 0.00989689
Draining remaining packets ...
Time taken is 55691 cycles
====== Traffic class 0 ======

Total number of flits generated = 7055, changed lanes = 0
Overall minimum packet latency = 62 (1 samples)
Overall average packet latency = 480.72 (1 samples)
Overall maximum packet latency = 1074 (1 samples)
Overall minimum network latency = 63 (1 samples)
Overall average network latency = 481.667 (1 samples)
Overall maximum network latency = 1075 (1 samples)
Overall minimum flit latency = 63 (1 samples)
Overall average flit latency = 482.178 (1 samples)
Overall maximum flit latency = 1075 (1 samples)
Overall minimum fragmentation = 0 (1 samples)
Overall average fragmentation = 0 (1 samples)
Overall maximum fragmentation = 0 (1 samples)
Overall minimum injected packet rate = 0 (1 samples)
Overall average injected packet rate = 0.00100734 (1 samples)
Overall maximum injected packet rate = 0.00252 (1 samples)
Overall minimum accepted packet rate = 0 (1 samples)
Overall average accepted packet rate = 0.00100516 (1 samples)
Overall maximum accepted packet rate = 0.00258 (1 samples)
Overall minimum injected flit rate = 0 (1 samples)
Overall average injected flit rate = 0.00100734 (1 samples)
Overall maximum injected flit rate = 0.00252 (1 samples)
Overall minimum accepted flit rate = 0 (1 samples)
Overall average accepted flit rate = 0.00100516 (1 samples)
Overall maximum accepted flit rate = 0.00258 (1 samples)
Overall average injected packet size = 1 (1 samples)
Overall average accepted packet size = 1 (1 samples)
Overall average hops = 7.69815 (1 samples)
Overall throughput of the network (flits/cycle) = 0.1411
Overall throughput of the network (packets/cycle) = 0.1411
CSV Result Header , avgFLat,avgFInjRate
CSV Result ,482.178,0.00100734

Power Report Header, Frequency, Time, StaticIQ, DynamicIQ, StaticVC, DynamicVC, StaticSA, DynamicSA, StaticST, DynamicST, StaticLink, DynamicLink, NoFlits, ePerFlit
Power Report,3.9e+08,55691,0.131875,0.00340182,0.00749762,0.000100851,0.00224928,8.78303e-05,0.477597,0.00111381,0.0905466,0.00235911,7055,1.45111e-08

*****************************************
Total run time 13.0373
generate:0x7ffc13aac990
delete:0x7ffc13aac990
L = 2 K = 8.1 M = 2 N = 1
-----------------------------------------
- OCN Power Summary
- Completion Time:         55691
- Flit Widths:            64
- Channel Wire Power:      0.317809
- Channel Clock Power:     1.46183
- Channel Retiming Power:  0.0039486
- Channel Leakage Power:   0.551082
- Input Read Power:        0.0098497
- Input Write Power:       0.0098497
- Input Leakage Power:     0.113246
- Switch Power:            0.0212638
- Switch Control Power:    0.0110585
- Switch Leakage Power:    0.771052
- Output DFF Power:        0.00229566
- Output Clk Power:        0.727126
- Output Control Power:    0.00118475
- Total Power:             4.00159
-----------------------------------------

-----------------------------------------
- OCN Area Summary
- Channel Area:  0.109536
- Switch  Area:  0.241592
- Input  Area:   0.120796
- Output  Area:  0.0201327
- Total Area:    0.492056
-----------------------------------------
CSV Power Result Header , Completion Time, Channel Wire, Channel Clock, Channel Retiming, Channel Leakage, Input Read, Input Write, Input Leakage, Switch Power, Switch Control, Switch Leakage, Output DFF, Output Clk, Output Control
CSV Power Result , 55691, 0.317809, 1.46183, 0.0039486, 0.551082, 0.0098497, 0.0098497, 0.113246, 0.0212638, 0.0110585, 0.771052, 0.00229566, 0.727126, 0.00118475
delete:0x7ffc13aac990
delete:0x7ffc13aac990
delete:0x7ffc13aac990
delete:0x7ffc13aac990
delete:0x7ffc13aac990
delete:0x7ffc13aac990
