generate:0x7ffdb1780570
generate:0x7ffdb1780628
generate:0x7ffdb17806e0
generate:0x7ffdb1780798
generate:0x7ffdb1780850
generate:0x7ffdb17809c0
BEGIN Configuration File: interposer2
//topology
topology = mesh;
k = 8;
n = 2;
type = interposer;
// Routing
routing_function = dor;

// Flow control
num_vcs     = 2;
vc_buf_size = 8;
wait_for_tail_credit = 1;
hold_switch_for_packet = 1;

// Router architecture
vc_allocator = islip;
sw_allocator = islip;
alloc_iters  = 1;

credit_delay   = 0;
routing_delay  = 1;
vc_alloc_delay = 1;
sw_alloc_delay = 1;
st_final_delay = 1;

input_speedup     = 1;
output_speedup    = 1;
internal_speedup  = 1.0;
vc_busy_when_full = 0;


//granulaity
latency_thres=20000.0;
deadlock_warn_timeout=20000;
traceStretch=3;

//gating
doGating=0;
sleepThreshold=40;
breakEvenThreshold=80;



//Syn Traffic
//sim_type=latency;
sim_type=throughput;
traffic=uniform;
packet_size = 1;
sample_period=5000;
warmup_periods=1;
max_samples=11;
injection_rate=0.006;

creditDelays=creditDelays({0,0,0,0,0,0,0,0,0,0,0,0,0,0,0,0,0,0,0,0,0,0,0,0,0,0,0,0,0,0,0,0,0,0,0,0,0,0,0,0,0,0,0,0,0,0,0,0,0,0,0,0,0,0,0,0,0,0,0,0,0,0,0,0}});
routingDelays=routingDelays({15,15,15,15,15,15,15,15,15,15,15,15,15,15,15,15,15,15,15,15,15,15,15,15,15,15,15,15,15,15,15,15,15,15,15,15,15,15,15,15,15,15,15,15,15,15,15,15,15,15,15,15,15,15,15,15,15,15,15,15,15,15,15,15});
vcAllocDelays=vcAllocDelays({15,15,15,15,15,15,15,15,15,15,15,15,15,15,15,15,15,15,15,15,15,15,15,15,15,15,15,15,15,15,15,15,15,15,15,15,15,15,15,15,15,15,15,15,15,15,15,15,15,15,15,15,15,15,15,15,15,15,15,15,15,15,15,15});
swAllocDelays=swAllocDelays({15,15,15,15,15,15,15,15,15,15,15,15,15,15,15,15,15,15,15,15,15,15,15,15,15,15,15,15,15,15,15,15,15,15,15,15,15,15,15,15,15,15,15,15,15,15,15,15,15,15,15,15,15,15,15,15,15,15,15,15,15,15,15,15});
stFinalDelays=stFinalDelays({15,15,15,15,15,15,15,15,15,15,15,15,15,15,15,15,15,15,15,15,15,15,15,15,15,15,15,15,15,15,15,15,15,15,15,15,15,15,15,15,15,15,15,15,15,15,15,15,15,15,15,15,15,15,15,15,15,15,15,15,15,15,15,15});

isAsync=isAsync({1,1,1,1,1,1,1,1,1,1,1,1,1,1,1,1,1,1,1,1,1,1,1,1,1,1,1,1,1,1,1,1,1,1,1,1,1,1,1,1,1,1,1,1,1,1,1,1,1,1,1,1,1,1,1,1,1,1,1,1,1,1,1,1});
isMetaUnstable=isMetaUnstable({0,0,0,0,0,0,0,0,0,0,0,0,0,0,0,0,0,0,0,0,0,0,0,0,0,0,0,0,0,0,0,0,0,0,0,0,0,0,0,0,0,0,0,0,0,0,0,0,0,0,0,0,0,0,0,0,0,0,0,0,0,0,0,0});

creditDelayStdDevs=creditDelayStdDevs({0,0,0,0,0,0,0,0,0,0,0,0,0,0,0,0,0,0,0,0,0,0,0,0,0,0,0,0,0,0,0,0,0,0,0,0,0,0,0,0,0,0,0,0,0,0,0,0,0,0,0,0,0,0,0,0,0,0,0,0,0,0,0,0});
routingDelayStdDevs=routingDelayStdDevs({0,0,0,0,0,0,0,0,0,0,0,0,0,0,0,0,0,0,0,0,0,0,0,0,0,0,0,0,0,0,0,0,0,0,0,0,0,0,0,0,0,0,0,0,0,0,0,0,0,0,0,0,0,0,0,0,0,0,0,0,0,0,0,0});
vcAllocDelayStdDevs=vcAllocDelayStdDevs({0,0,0,0,0,0,0,0,0,0,0,0,0,0,0,0,0,0,0,0,0,0,0,0,0,0,0,0,0,0,0,0,0,0,0,0,0,0,0,0,0,0,0,0,0,0,0,0,0,0,0,0,0,0,0,0,0,0,0,0,0,0,0,0});
swAllocDelayStdDevs=swAllocDelayStdDevs({0,0,0,0,0,0,0,0,0,0,0,0,0,0,0,0,0,0,0,0,0,0,0,0,0,0,0,0,0,0,0,0,0,0,0,0,0,0,0,0,0,0,0,0,0,0,0,0,0,0,0,0,0,0,0,0,0,0,0,0,0,0,0,0});
stFinalDelayStdDevs=stFinalDelayStdDevs({0,0,0,0,0,0,0,0,0,0,0,0,0,0,0,0,0,0,0,0,0,0,0,0,0,0,0,0,0,0,0,0,0,0,0,0,0,0,0,0,0,0,0,0,0,0,0,0,0,0,0,0,0,0,0,0,0,0,0,0,0,0,0,0});

  
swAllocThresholds=swAllocThresholds({1,1,1,1,1,1,1,1,1,1,1,1,1,1,1,1,1,1,1,1,1,1,1,1,1,1,1,1,1,1,1,1,1,1,1,1,1,1,1,1,1,1,1,1,1,1,1,1,1,1,1,1,1,1,1,1,1,1,1,1,1,1,1,1});
swAllocThresholdStdDevs=swAllocThresholdStdDevs({0,0,0,0,0,0,0,0,0,0,0,0,0,0,0,0,0,0,0,0,0,0,0,0,0,0,0,0,0,0,0,0,0,0,0,0,0,0,0,0,0,0,0,0,0,0,0,0,0,0,0,0,0,0,0,0,0,0,0,0,0,0,0,0});
swAllocMetaStableThresholds=swAllocMetaStableThresholds({1,1,1,1,1,1,1,1,1,1,1,1,1,1,1,1,1,1,1,1,1,1,1,1,1,1,1,1,1,1,1,1,1,1,1,1,1,1,1,1,1,1,1,1,1,1,1,1,1,1,1,1,1,1,1,1,1,1,1,1,1,1,1,1});
swAllocMetaStableMaxPenalities=swAllocMetaStableMaxPenalities({0,0,0,0,0,0,0,0,0,0,0,0,0,0,0,0,0,0,0,0,0,0,0,0,0,0,0,0,0,0,0,0,0,0,0,0,0,0,0,0,0,0,0,0,0,0,0,0,0,0,0,0,0,0,0,0,0,0,0,0,0,0,0,0});

END Configuration File: interposer2
BEGIN Configuration File: chip1_1
//topology
topology = mesh;
k = 4;
n = 2;
type = chip;
start_point = 0;
cnum=1;
// Routing
routing_function = dor;

// Flow control
num_vcs     = 2;
vc_buf_size = 8;
wait_for_tail_credit = 1;
hold_switch_for_packet = 1;

// Router architecture
vc_allocator = islip;
sw_allocator = islip;
alloc_iters  = 1;

credit_delay   = 1;
routing_delay  = 1;
vc_alloc_delay = 1;
sw_alloc_delay = 1;
st_final_delay = 1;

input_speedup     = 1;
output_speedup    = 1;
internal_speedup  = 1.0;
vc_busy_when_full = 0;


//granulaity
latency_thres=20000.0;
deadlock_warn_timeout=20000;
traceStretch=3;

//gating
doGating=0;
sleepThreshold=40;
breakEvenThreshold=80;



//Syn Traffic
sim_type=latency;
traffic=uniform;
packet_size = 1;
sample_period=50000;
warmup_periods=1;
max_samples=12;
injection_rate=0.01;

//creditDelays=creditDelays({0,0,0,0,0,0,0,0,0,0,0,0,0,0,0,0});
//routingDelays=routingDelays({1,1,1,1,1,1,1,1,1,1,1,1,1,1,1,1});
//vcAllocDelays=vcAllocDelays({1,1,1,1,1,1,1,1,1,1,1,1,1,1,1,1});
//swAllocDelays=swAllocDelays({1,1,1,1,1,1,1,1,1,1,1,1,1,1,1,1});
//stFinalDelays=stFinalDelays({1,1,1,1,1,1,1,1,1,1,1,1,1,1,1,1});
//channelDelays=channelDelays({1,1,1,1,1,1,1,1,1,1,1,1,1,1,1,1});

creditDelays=creditDelays({0,0,0,0,0,0,0,0,0,0,0,0,0,0,0,0,0,0,0,0,0,0,0,0,0,0,0,0,0,0,0,0,0,0,0,0,0,0,0,0,0,0,0,0,0,0,0,0,0,0,0,0,0,0,0,0,0,0,0,0,0,0,0,0}});
routingDelays=routingDelays({15,15,15,15,15,15,15,15,15,15,15,15,15,15,15,15,15,15,15,15,15,15,15,15,15,15,15,15,15,15,15,15,15,15,15,15,15,15,15,15,15,15,15,15,15,15,15,15,15,15,15,15,15,15,15,15,15,15,15,15,15,15,15,15});
vcAllocDelays=vcAllocDelays({15,15,15,15,15,15,15,15,15,15,15,15,15,15,15,15,15,15,15,15,15,15,15,15,15,15,15,15,15,15,15,15,15,15,15,15,15,15,15,15,15,15,15,15,15,15,15,15,15,15,15,15,15,15,15,15,15,15,15,15,15,15,15,15});
swAllocDelays=swAllocDelays({15,15,15,15,15,15,15,15,15,15,15,15,15,15,15,15,15,15,15,15,15,15,15,15,15,15,15,15,15,15,15,15,15,15,15,15,15,15,15,15,15,15,15,15,15,15,15,15,15,15,15,15,15,15,15,15,15,15,15,15,15,15,15,15});
stFinalDelays=stFinalDelays({15,15,15,15,15,15,15,15,15,15,15,15,15,15,15,15,15,15,15,15,15,15,15,15,15,15,15,15,15,15,15,15,15,15,15,15,15,15,15,15,15,15,15,15,15,15,15,15,15,15,15,15,15,15,15,15,15,15,15,15,15,15,15,15});


isAsync=isAsync({1,1,1,1,1,1,1,1,1,1,1,1,1,1,1,1});
isMetaUnstable=isMetaUnstable({0,0,0,0,0,0,0,0,0,0,0,0,0,0,0,0});

creditDelayStdDevs=creditDelayStdDevs({0,0,0,0,0,0,0,0,0,0,0,0,0,0,0,0});
routingDelayStdDevs=routingDelayStdDevs({0,0,0,0,0,0,0,0,0,0,0,0,0,0,0,0});
vcAllocDelayStdDevs=vcAllocDelayStdDevs({0,0,0,0,0,0,0,0,0,0,0,0,0,0,0,0});
swAllocDelayStdDevs=swAllocDelayStdDevs({0,0,0,0,0,0,0,0,0,0,0,0,0,0,0,0});
stFinalDelayStdDevs=stFinalDelayStdDevs({0,0,0,0,0,0,0,0,0,0,0,0,0,0,0,0});

  
swAllocThresholds=swAllocThresholds({1,1,1,1,1,1,1,1,1,1,1,1,1,1,1,1});
swAllocThresholdStdDevs=swAllocThresholdStdDevs({0,0,0,0,0,0,0,0,0,0,0,0,0,0,0,0});
swAllocMetaStableThresholds=swAllocMetaStableThresholds({1,1,1,1,1,1,1,1,1,1,1,1,1,1,1,1});
swAllocMetaStableMaxPenalities=swAllocMetaStableMaxPenalities({0,0,0,0,0,0,0,0,0,0,0,0,0,0,0,0});

END Configuration File: chip1_1
BEGIN Configuration File: chip2_1
//topology
topology = mesh;
k = 4;
n = 2;
type = chip;
//start_point = 2;
start_point = 4;
cnum = 2;
// Routing
routing_function = dor;

// Flow control
num_vcs     = 2;
vc_buf_size = 8;
wait_for_tail_credit = 1;
hold_switch_for_packet = 1;

// Router architecture
vc_allocator = islip;
sw_allocator = islip;
alloc_iters  = 1;

credit_delay   = 1;
routing_delay  = 1;
vc_alloc_delay = 1;
sw_alloc_delay = 1;
st_final_delay = 1;

input_speedup     = 1;
output_speedup    = 1;
internal_speedup  = 1.0;
vc_busy_when_full = 0;


//granulaity
latency_thres=20000.0;
deadlock_warn_timeout=20000;
traceStretch=3;

//gating
doGating=0;
sleepThreshold=40;
breakEvenThreshold=80;



//Syn Traffic
sim_type=latency;
traffic=uniform;
packet_size = 1;
sample_period=50000;
warmup_periods=3;
max_samples=14;
injection_rate=0.01;

creditDelays=creditDelays({0,0,0,0,0,0,0,0,0,0,0,0,0,0,0,0,0,0,0,0,0,0,0,0,0,0,0,0,0,0,0,0,0,0,0,0,0,0,0,0,0,0,0,0,0,0,0,0,0,0,0,0,0,0,0,0,0,0,0,0,0,0,0,0}});
routingDelays=routingDelays({15,15,15,15,15,15,15,15,15,15,15,15,15,15,15,15,15,15,15,15,15,15,15,15,15,15,15,15,15,15,15,15,15,15,15,15,15,15,15,15,15,15,15,15,15,15,15,15,15,15,15,15,15,15,15,15,15,15,15,15,15,15,15,15});
vcAllocDelays=vcAllocDelays({15,15,15,15,15,15,15,15,15,15,15,15,15,15,15,15,15,15,15,15,15,15,15,15,15,15,15,15,15,15,15,15,15,15,15,15,15,15,15,15,15,15,15,15,15,15,15,15,15,15,15,15,15,15,15,15,15,15,15,15,15,15,15,15});
swAllocDelays=swAllocDelays({15,15,15,15,15,15,15,15,15,15,15,15,15,15,15,15,15,15,15,15,15,15,15,15,15,15,15,15,15,15,15,15,15,15,15,15,15,15,15,15,15,15,15,15,15,15,15,15,15,15,15,15,15,15,15,15,15,15,15,15,15,15,15,15});
stFinalDelays=stFinalDelays({15,15,15,15,15,15,15,15,15,15,15,15,15,15,15,15,15,15,15,15,15,15,15,15,15,15,15,15,15,15,15,15,15,15,15,15,15,15,15,15,15,15,15,15,15,15,15,15,15,15,15,15,15,15,15,15,15,15,15,15,15,15,15,15});


isAsync=isAsync({1,1,1,1,1,1,1,1,1,1,1,1,1,1,1,1});
isMetaUnstable=isMetaUnstable({0,0,0,0,0,0,0,0,0,0,0,0,0,0,0,0});

creditDelayStdDevs=creditDelayStdDevs({0,0,0,0,0,0,0,0,0,0,0,0,0,0,0,0});
routingDelayStdDevs=routingDelayStdDevs({0,0,0,0,0,0,0,0,0,0,0,0,0,0,0,0});
vcAllocDelayStdDevs=vcAllocDelayStdDevs({0,0,0,0,0,0,0,0,0,0,0,0,0,0,0,0});
swAllocDelayStdDevs=swAllocDelayStdDevs({0,0,0,0,0,0,0,0,0,0,0,0,0,0,0,0});
stFinalDelayStdDevs=stFinalDelayStdDevs({0,0,0,0,0,0,0,0,0,0,0,0,0,0,0,0});

  
swAllocThresholds=swAllocThresholds({1,1,1,1,1,1,1,1,1,1,1,1,1,1,1,1});
swAllocThresholdStdDevs=swAllocThresholdStdDevs({0,0,0,0,0,0,0,0,0,0,0,0,0,0,0,0});
swAllocMetaStableThresholds=swAllocMetaStableThresholds({1,1,1,1,1,1,1,1,1,1,1,1,1,1,1,1});
swAllocMetaStableMaxPenalities=swAllocMetaStableMaxPenalities({0,0,0,0,0,0,0,0,0,0,0,0,0,0,0,0});

END Configuration File: chip2_1
BEGIN Configuration File: chip3_1
//topology
topology = mesh;
k = 4;
n = 2;
type = chip;
//start_point = 8;
start_point = 32;
cnum = 3;
// Routing
routing_function = dor;

// Flow control
num_vcs     = 2;
vc_buf_size = 8;
wait_for_tail_credit = 1;
hold_switch_for_packet = 1;

// Router architecture
vc_allocator = islip;
sw_allocator = islip;
alloc_iters  = 1;

credit_delay   = 1;
routing_delay  = 1;
vc_alloc_delay = 1;
sw_alloc_delay = 1;
st_final_delay = 1;

input_speedup     = 1;
output_speedup    = 1;
internal_speedup  = 1.0;
vc_busy_when_full = 0;


//granulaity
latency_thres=20000.0;
deadlock_warn_timeout=20000;
traceStretch=3;

//gating
doGating=0;
sleepThreshold=40;
breakEvenThreshold=80;



//Syn Traffic
sim_type=latency;
traffic=uniform;
packet_size = 1;
sample_period=50000;
warmup_periods=3;
max_samples=14;
injection_rate=0.01;

creditDelays=creditDelays({0,0,0,0,0,0,0,0,0,0,0,0,0,0,0,0,0,0,0,0,0,0,0,0,0,0,0,0,0,0,0,0,0,0,0,0,0,0,0,0,0,0,0,0,0,0,0,0,0,0,0,0,0,0,0,0,0,0,0,0,0,0,0,0}});
routingDelays=routingDelays({15,15,15,15,15,15,15,15,15,15,15,15,15,15,15,15,15,15,15,15,15,15,15,15,15,15,15,15,15,15,15,15,15,15,15,15,15,15,15,15,15,15,15,15,15,15,15,15,15,15,15,15,15,15,15,15,15,15,15,15,15,15,15,15});
vcAllocDelays=vcAllocDelays({15,15,15,15,15,15,15,15,15,15,15,15,15,15,15,15,15,15,15,15,15,15,15,15,15,15,15,15,15,15,15,15,15,15,15,15,15,15,15,15,15,15,15,15,15,15,15,15,15,15,15,15,15,15,15,15,15,15,15,15,15,15,15,15});
swAllocDelays=swAllocDelays({15,15,15,15,15,15,15,15,15,15,15,15,15,15,15,15,15,15,15,15,15,15,15,15,15,15,15,15,15,15,15,15,15,15,15,15,15,15,15,15,15,15,15,15,15,15,15,15,15,15,15,15,15,15,15,15,15,15,15,15,15,15,15,15});
stFinalDelays=stFinalDelays({15,15,15,15,15,15,15,15,15,15,15,15,15,15,15,15,15,15,15,15,15,15,15,15,15,15,15,15,15,15,15,15,15,15,15,15,15,15,15,15,15,15,15,15,15,15,15,15,15,15,15,15,15,15,15,15,15,15,15,15,15,15,15,15});


isAsync=isAsync({1,1,1,1,1,1,1,1,1,1,1,1,1,1,1,1});
isMetaUnstable=isMetaUnstable({0,0,0,0,0,0,0,0,0,0,0,0,0,0,0,0});

creditDelayStdDevs=creditDelayStdDevs({0,0,0,0,0,0,0,0,0,0,0,0,0,0,0,0});
routingDelayStdDevs=routingDelayStdDevs({0,0,0,0,0,0,0,0,0,0,0,0,0,0,0,0});
vcAllocDelayStdDevs=vcAllocDelayStdDevs({0,0,0,0,0,0,0,0,0,0,0,0,0,0,0,0});
swAllocDelayStdDevs=swAllocDelayStdDevs({0,0,0,0,0,0,0,0,0,0,0,0,0,0,0,0});
stFinalDelayStdDevs=stFinalDelayStdDevs({0,0,0,0,0,0,0,0,0,0,0,0,0,0,0,0});

  
swAllocThresholds=swAllocThresholds({1,1,1,1,1,1,1,1,1,1,1,1,1,1,1,1});
swAllocThresholdStdDevs=swAllocThresholdStdDevs({0,0,0,0,0,0,0,0,0,0,0,0,0,0,0,0});
swAllocMetaStableThresholds=swAllocMetaStableThresholds({1,1,1,1,1,1,1,1,1,1,1,1,1,1,1,1});
swAllocMetaStableMaxPenalities=swAllocMetaStableMaxPenalities({0,0,0,0,0,0,0,0,0,0,0,0,0,0,0,0});

END Configuration File: chip3_1
BEGIN Configuration File: chip4_1
//topology
topology = mesh;
k = 4;
n = 2;
type = chip;
//start_point = 10;
start_point = 36;
cnum = 4;
// Routing
routing_function = dor;

// Flow control
num_vcs     = 2;
vc_buf_size = 8;
wait_for_tail_credit = 1;
hold_switch_for_packet = 1;

// Router architecture
vc_allocator = islip;
sw_allocator = islip;
alloc_iters  = 1;

credit_delay   = 1;
routing_delay  = 1;
vc_alloc_delay = 1;
sw_alloc_delay = 1;
st_final_delay = 1;

input_speedup     = 1;
output_speedup    = 1;
internal_speedup  = 1.0;
vc_busy_when_full = 0;


//granulaity
latency_thres=20000.0;
deadlock_warn_timeout=20000;
traceStretch=3;

//gating
doGating=0;
sleepThreshold=40;
breakEvenThreshold=80;



//Syn Traffic
sim_type=latency;
traffic=uniform;
packet_size = 1;
sample_period=50000;
warmup_periods=3;
max_samples=14;
injection_rate=0.01;

creditDelays=creditDelays({0,0,0,0,0,0,0,0,0,0,0,0,0,0,0,0,0,0,0,0,0,0,0,0,0,0,0,0,0,0,0,0,0,0,0,0,0,0,0,0,0,0,0,0,0,0,0,0,0,0,0,0,0,0,0,0,0,0,0,0,0,0,0,0}});
routingDelays=routingDelays({15,15,15,15,15,15,15,15,15,15,15,15,15,15,15,15,15,15,15,15,15,15,15,15,15,15,15,15,15,15,15,15,15,15,15,15,15,15,15,15,15,15,15,15,15,15,15,15,15,15,15,15,15,15,15,15,15,15,15,15,15,15,15,15});
vcAllocDelays=vcAllocDelays({15,15,15,15,15,15,15,15,15,15,15,15,15,15,15,15,15,15,15,15,15,15,15,15,15,15,15,15,15,15,15,15,15,15,15,15,15,15,15,15,15,15,15,15,15,15,15,15,15,15,15,15,15,15,15,15,15,15,15,15,15,15,15,15});
swAllocDelays=swAllocDelays({15,15,15,15,15,15,15,15,15,15,15,15,15,15,15,15,15,15,15,15,15,15,15,15,15,15,15,15,15,15,15,15,15,15,15,15,15,15,15,15,15,15,15,15,15,15,15,15,15,15,15,15,15,15,15,15,15,15,15,15,15,15,15,15});
stFinalDelays=stFinalDelays({15,15,15,15,15,15,15,15,15,15,15,15,15,15,15,15,15,15,15,15,15,15,15,15,15,15,15,15,15,15,15,15,15,15,15,15,15,15,15,15,15,15,15,15,15,15,15,15,15,15,15,15,15,15,15,15,15,15,15,15,15,15,15,15});


isAsync=isAsync({1,1,1,1,1,1,1,1,1,1,1,1,1,1,1,1});
isMetaUnstable=isMetaUnstable({0,0,0,0,0,0,0,0,0,0,0,0,0,0,0,0});

creditDelayStdDevs=creditDelayStdDevs({0,0,0,0,0,0,0,0,0,0,0,0,0,0,0,0});
routingDelayStdDevs=routingDelayStdDevs({0,0,0,0,0,0,0,0,0,0,0,0,0,0,0,0});
vcAllocDelayStdDevs=vcAllocDelayStdDevs({0,0,0,0,0,0,0,0,0,0,0,0,0,0,0,0});
swAllocDelayStdDevs=swAllocDelayStdDevs({0,0,0,0,0,0,0,0,0,0,0,0,0,0,0,0});
stFinalDelayStdDevs=stFinalDelayStdDevs({0,0,0,0,0,0,0,0,0,0,0,0,0,0,0,0});

  
swAllocThresholds=swAllocThresholds({1,1,1,1,1,1,1,1,1,1,1,1,1,1,1,1});
swAllocThresholdStdDevs=swAllocThresholdStdDevs({0,0,0,0,0,0,0,0,0,0,0,0,0,0,0,0});
swAllocMetaStableThresholds=swAllocMetaStableThresholds({1,1,1,1,1,1,1,1,1,1,1,1,1,1,1,1});
swAllocMetaStableMaxPenalities=swAllocMetaStableMaxPenalities({0,0,0,0,0,0,0,0,0,0,0,0,0,0,0,0});

END Configuration File: chip4_1
rid:0 add output _25chan1
rid:0 add input _25chan0
rid:1 add output _25chan3
rid:1 add input _25chan2
rid:2 add output _25chan5
rid:2 add input _25chan4
rid:3 add output _25chan7
rid:3 add input _25chan6
rid:4 add output _25chan33
rid:4 add input _25chan32
rid:5 add output _25chan35
rid:5 add input _25chan34
rid:6 add output _25chan37
rid:6 add input _25chan36
rid:7 add output _25chan39
rid:7 add input _25chan38
rid:8 add output _25chan9
rid:8 add input _25chan8
rid:9 add output _25chan11
rid:9 add input _25chan10
rid:10 add output _25chan13
rid:10 add input _25chan12
rid:11 add output _25chan15
rid:11 add input _25chan14
rid:12 add output _25chan41
rid:12 add input _25chan40
rid:13 add output _25chan43
rid:13 add input _25chan42
rid:14 add output _25chan45
rid:14 add input _25chan44
rid:15 add output _25chan47
rid:15 add input _25chan46
rid:16 add output _25chan17
rid:16 add input _25chan16
rid:17 add output _25chan19
rid:17 add input _25chan18
rid:18 add output _25chan21
rid:18 add input _25chan20
rid:19 add output _25chan23
rid:19 add input _25chan22
rid:20 add output _25chan49
rid:20 add input _25chan48
rid:21 add output _25chan51
rid:21 add input _25chan50
rid:22 add output _25chan53
rid:22 add input _25chan52
rid:23 add output _25chan55
rid:23 add input _25chan54
rid:24 add output _25chan25
rid:24 add input _25chan24
rid:25 add output _25chan27
rid:25 add input _25chan26
rid:26 add output _25chan29
rid:26 add input _25chan28
rid:27 add output _25chan31
rid:27 add input _25chan30
rid:28 add output _25chan57
rid:28 add input _25chan56
rid:29 add output _25chan59
rid:29 add input _25chan58
rid:30 add output _25chan61
rid:30 add input _25chan60
rid:31 add output _25chan63
rid:31 add input _25chan62
rid:32 add output _25chan65
rid:32 add input _25chan64
rid:33 add output _25chan67
rid:33 add input _25chan66
rid:34 add output _25chan69
rid:34 add input _25chan68
rid:35 add output _25chan71
rid:35 add input _25chan70
rid:36 add output _25chan97
rid:36 add input _25chan96
rid:37 add output _25chan99
rid:37 add input _25chan98
rid:38 add output _25chan101
rid:38 add input _25chan100
rid:39 add output _25chan103
rid:39 add input _25chan102
rid:40 add output _25chan73
rid:40 add input _25chan72
rid:41 add output _25chan75
rid:41 add input _25chan74
rid:42 add output _25chan77
rid:42 add input _25chan76
rid:43 add output _25chan79
rid:43 add input _25chan78
rid:44 add output _25chan105
rid:44 add input _25chan104
rid:45 add output _25chan107
rid:45 add input _25chan106
rid:46 add output _25chan109
rid:46 add input _25chan108
rid:47 add output _25chan111
rid:47 add input _25chan110
rid:48 add output _25chan81
rid:48 add input _25chan80
rid:49 add output _25chan83
rid:49 add input _25chan82
rid:50 add output _25chan85
rid:50 add input _25chan84
rid:51 add output _25chan87
rid:51 add input _25chan86
rid:52 add output _25chan113
rid:52 add input _25chan112
rid:53 add output _25chan115
rid:53 add input _25chan114
rid:54 add output _25chan117
rid:54 add input _25chan116
rid:55 add output _25chan119
rid:55 add input _25chan118
rid:56 add output _25chan89
rid:56 add input _25chan88
rid:57 add output _25chan91
rid:57 add input _25chan90
rid:58 add output _25chan93
rid:58 add input _25chan92
rid:59 add output _25chan95
rid:59 add input _25chan94
rid:60 add output _25chan121
rid:60 add input _25chan120
rid:61 add output _25chan123
rid:61 add input _25chan122
rid:62 add output _25chan125
rid:62 add input _25chan124
rid:63 add output _25chan127
rid:63 add input _25chan126
rid:0 add output _25chan0
rid:0 add input _25chan1
rid:1 add output _25chan2
rid:1 add input _25chan3
rid:2 add output _25chan4
rid:2 add input _25chan5
rid:3 add output _25chan6
rid:3 add input _25chan7
rid:4 add output _25chan8
rid:4 add input _25chan9
rid:5 add output _25chan10
rid:5 add input _25chan11
rid:6 add output _25chan12
rid:6 add input _25chan13
rid:7 add output _25chan14
rid:7 add input _25chan15
rid:8 add output _25chan16
rid:8 add input _25chan17
rid:9 add output _25chan18
rid:9 add input _25chan19
rid:10 add output _25chan20
rid:10 add input _25chan21
rid:11 add output _25chan22
rid:11 add input _25chan23
rid:12 add output _25chan24
rid:12 add input _25chan25
rid:13 add output _25chan26
rid:13 add input _25chan27
rid:14 add output _25chan28
rid:14 add input _25chan29
rid:15 add output _25chan30
rid:15 add input _25chan31
rid:0 add output _25chan32
rid:0 add input _25chan33
rid:1 add output _25chan34
rid:1 add input _25chan35
rid:2 add output _25chan36
rid:2 add input _25chan37
rid:3 add output _25chan38
rid:3 add input _25chan39
rid:4 add output _25chan40
rid:4 add input _25chan41
rid:5 add output _25chan42
rid:5 add input _25chan43
rid:6 add output _25chan44
rid:6 add input _25chan45
rid:7 add output _25chan46
rid:7 add input _25chan47
rid:8 add output _25chan48
rid:8 add input _25chan49
rid:9 add output _25chan50
rid:9 add input _25chan51
rid:10 add output _25chan52
rid:10 add input _25chan53
rid:11 add output _25chan54
rid:11 add input _25chan55
rid:12 add output _25chan56
rid:12 add input _25chan57
rid:13 add output _25chan58
rid:13 add input _25chan59
rid:14 add output _25chan60
rid:14 add input _25chan61
rid:15 add output _25chan62
rid:15 add input _25chan63
rid:0 add output _25chan64
rid:0 add input _25chan65
rid:1 add output _25chan66
rid:1 add input _25chan67
rid:2 add output _25chan68
rid:2 add input _25chan69
rid:3 add output _25chan70
rid:3 add input _25chan71
rid:4 add output _25chan72
rid:4 add input _25chan73
rid:5 add output _25chan74
rid:5 add input _25chan75
rid:6 add output _25chan76
rid:6 add input _25chan77
rid:7 add output _25chan78
rid:7 add input _25chan79
rid:8 add output _25chan80
rid:8 add input _25chan81
rid:9 add output _25chan82
rid:9 add input _25chan83
rid:10 add output _25chan84
rid:10 add input _25chan85
rid:11 add output _25chan86
rid:11 add input _25chan87
rid:12 add output _25chan88
rid:12 add input _25chan89
rid:13 add output _25chan90
rid:13 add input _25chan91
rid:14 add output _25chan92
rid:14 add input _25chan93
rid:15 add output _25chan94
rid:15 add input _25chan95
rid:0 add output _25chan96
rid:0 add input _25chan97
rid:1 add output _25chan98
rid:1 add input _25chan99
rid:2 add output _25chan100
rid:2 add input _25chan101
rid:3 add output _25chan102
rid:3 add input _25chan103
rid:4 add output _25chan104
rid:4 add input _25chan105
rid:5 add output _25chan106
rid:5 add input _25chan107
rid:6 add output _25chan108
rid:6 add input _25chan109
rid:7 add output _25chan110
rid:7 add input _25chan111
rid:8 add output _25chan112
rid:8 add input _25chan113
rid:9 add output _25chan114
rid:9 add input _25chan115
rid:10 add output _25chan116
rid:10 add input _25chan117
rid:11 add output _25chan118
rid:11 add input _25chan119
rid:12 add output _25chan120
rid:12 add input _25chan121
rid:13 add output _25chan122
rid:13 add input _25chan123
rid:14 add output _25chan124
rid:14 add input _25chan125
rid:15 add output _25chan126
rid:15 add input _25chan127

Tick: 0M
===== Time: 5000 =====
Class 0:
Minimum packet latency = 62
Average packet latency = 548.424
Maximum packet latency = 1651
Minimum network latency = 63
Average network latency = 548.313
Maximum network latency = 1652
Slowest packet = 1181
Minimum flit latency = 63
Average flit latency = 548.313
Maximum flit latency = 1652
Slowest flit = 1181
Minimum fragmentation = 0
Average fragmentation = 0
Maximum fragmentation = 0
Minimum injected packet rate = 0 (at node 0)
Average injected packet rate = 0.00286719
Maximum injected packet rate = 0.008 (at node 106)
Minimum accepted packet rate = 0 (at node 0)
Average accepted packet rate = 0.00256406
Maximum accepted packet rate = 0.0084 (at node 115)
Minimum injected flit rate = 0 (at node 0)
Average injected flit rate = 0.00286719
Maximum injected flit rate = 0.008 (at node 106)
Minimum accepted flit rate = 0 (at node 0)
Average accepted flit rate = 0.00256406
Maximum accepted flit rate = 0.0084 (at node 115)
Total number of injected packets = 1835
Total number of injected flits = 1835
Average injected packet length = 1
Total number of accepted packets = 1641
Total number of accepted flits = 1641
Average accepted packet length = 1
Total in-flight flits = 196 (0 measured)
class 0 latency change    = 1
class 0 throughput change = 1
Warmed up ...Time used is 5000 cycles
===== Time: 10000 =====
Class 0:
Minimum packet latency = 62
Average packet latency = 604.448
Maximum packet latency = 2095
Minimum network latency = 63
Average network latency = 602.126
Maximum network latency = 2096
Slowest packet = 2621
Minimum flit latency = 63
Average flit latency = 617.168
Maximum flit latency = 2096
Slowest flit = 2621
Minimum fragmentation = 0
Average fragmentation = 0
Maximum fragmentation = 0
Minimum injected packet rate = 0 (at node 0)
Average injected packet rate = 0.00295781
Maximum injected packet rate = 0.0088 (at node 124)
Minimum accepted packet rate = 0 (at node 0)
Average accepted packet rate = 0.00286719
Maximum accepted packet rate = 0.0078 (at node 113)
Minimum injected flit rate = 0 (at node 0)
Average injected flit rate = 0.00295781
Maximum injected flit rate = 0.0088 (at node 124)
Minimum accepted flit rate = 0 (at node 0)
Average accepted flit rate = 0.00286719
Maximum accepted flit rate = 0.0078 (at node 113)
Total number of injected packets = 1893
Total number of injected flits = 1893
Average injected packet length = 1
Total number of accepted packets = 1835
Total number of accepted flits = 1835
Average accepted packet length = 1
Total in-flight flits = 254 (254 measured)
class 0 latency change    = 0.0926867
class 0 throughput change = 0.105722
===== Time: 15000 =====
Class 0:
Minimum packet latency = 62
Average packet latency = 618.737
Maximum packet latency = 2377
Minimum network latency = 63
Average network latency = 612.218
Maximum network latency = 2272
Slowest packet = 2621
Minimum flit latency = 63
Average flit latency = 618.965
Maximum flit latency = 2272
Slowest flit = 4265
Minimum fragmentation = 0
Average fragmentation = 0
Maximum fragmentation = 0
Minimum injected packet rate = 0 (at node 0)
Average injected packet rate = 0.00298516
Maximum injected packet rate = 0.0075 (at node 75)
Minimum accepted packet rate = 0 (at node 0)
Average accepted packet rate = 0.00296719
Maximum accepted packet rate = 0.0076 (at node 118)
Minimum injected flit rate = 0 (at node 0)
Average injected flit rate = 0.00298516
Maximum injected flit rate = 0.0075 (at node 75)
Minimum accepted flit rate = 0 (at node 0)
Average accepted flit rate = 0.00296719
Maximum accepted flit rate = 0.0076 (at node 118)
Total number of injected packets = 3821
Total number of injected flits = 3821
Average injected packet length = 1
Total number of accepted packets = 3798
Total number of accepted flits = 3798
Average accepted packet length = 1
Total in-flight flits = 217 (217 measured)
class 0 latency change    = 0.0230928
class 0 throughput change = 0.0337019
===== Time: 20000 =====
Class 0:
Minimum packet latency = 62
Average packet latency = 605.751
Maximum packet latency = 2377
Minimum network latency = 63
Average network latency = 601.283
Maximum network latency = 2272
Slowest packet = 2621
Minimum flit latency = 63
Average flit latency = 606.182
Maximum flit latency = 2272
Slowest flit = 4265
Minimum fragmentation = 0
Average fragmentation = 0
Maximum fragmentation = 0
Minimum injected packet rate = 0 (at node 0)
Average injected packet rate = 0.0029651
Maximum injected packet rate = 0.00713333 (at node 112)
Minimum accepted packet rate = 0 (at node 0)
Average accepted packet rate = 0.00295156
Maximum accepted packet rate = 0.0074 (at node 113)
Minimum injected flit rate = 0 (at node 0)
Average injected flit rate = 0.0029651
Maximum injected flit rate = 0.00713333 (at node 112)
Minimum accepted flit rate = 0 (at node 0)
Average accepted flit rate = 0.00295156
Maximum accepted flit rate = 0.0074 (at node 113)
Total number of injected packets = 5693
Total number of injected flits = 5693
Average injected packet length = 1
Total number of accepted packets = 5667
Total number of accepted flits = 5667
Average accepted packet length = 1
Total in-flight flits = 220 (220 measured)
class 0 latency change    = 0.0214384
class 0 throughput change = 0.00529381
===== Time: 25000 =====
Class 0:
Minimum packet latency = 62
Average packet latency = 594.66
Maximum packet latency = 2377
Minimum network latency = 63
Average network latency = 590.126
Maximum network latency = 2272
Slowest packet = 2621
Minimum flit latency = 63
Average flit latency = 594.098
Maximum flit latency = 2272
Slowest flit = 4265
Minimum fragmentation = 0
Average fragmentation = 0
Maximum fragmentation = 0
Minimum injected packet rate = 0 (at node 0)
Average injected packet rate = 0.00295859
Maximum injected packet rate = 0.00705 (at node 103)
Minimum accepted packet rate = 0 (at node 0)
Average accepted packet rate = 0.00294609
Maximum accepted packet rate = 0.00705 (at node 111)
Minimum injected flit rate = 0 (at node 0)
Average injected flit rate = 0.00295859
Maximum injected flit rate = 0.00705 (at node 103)
Minimum accepted flit rate = 0 (at node 0)
Average accepted flit rate = 0.00294609
Maximum accepted flit rate = 0.00705 (at node 111)
Total number of injected packets = 7574
Total number of injected flits = 7574
Average injected packet length = 1
Total number of accepted packets = 7542
Total number of accepted flits = 7542
Average accepted packet length = 1
Total in-flight flits = 227 (227 measured)
class 0 latency change    = 0.0186509
class 0 throughput change = 0.00185627
===== Time: 30000 =====
Class 0:
Minimum packet latency = 62
Average packet latency = 589.155
Maximum packet latency = 2377
Minimum network latency = 63
Average network latency = 585.111
Maximum network latency = 2272
Slowest packet = 2621
Minimum flit latency = 63
Average flit latency = 588.373
Maximum flit latency = 2272
Slowest flit = 4265
Minimum fragmentation = 0
Average fragmentation = 0
Maximum fragmentation = 0
Minimum injected packet rate = 0 (at node 0)
Average injected packet rate = 0.00297344
Maximum injected packet rate = 0.007 (at node 117)
Minimum accepted packet rate = 0 (at node 0)
Average accepted packet rate = 0.00296375
Maximum accepted packet rate = 0.00712 (at node 78)
Minimum injected flit rate = 0 (at node 0)
Average injected flit rate = 0.00297344
Maximum injected flit rate = 0.007 (at node 117)
Minimum accepted flit rate = 0 (at node 0)
Average accepted flit rate = 0.00296375
Maximum accepted flit rate = 0.00712 (at node 78)
Total number of injected packets = 9515
Total number of injected flits = 9515
Average injected packet length = 1
Total number of accepted packets = 9484
Total number of accepted flits = 9484
Average accepted packet length = 1
Total in-flight flits = 225 (225 measured)
class 0 latency change    = 0.0093436
class 0 throughput change = 0.0059574
===== Time: 35000 =====
Class 0:
Minimum packet latency = 62
Average packet latency = 587.021
Maximum packet latency = 2377
Minimum network latency = 63
Average network latency = 583.275
Maximum network latency = 2272
Slowest packet = 2621
Minimum flit latency = 63
Average flit latency = 586.031
Maximum flit latency = 2272
Slowest flit = 4265
Minimum fragmentation = 0
Average fragmentation = 0
Maximum fragmentation = 0
Minimum injected packet rate = 0 (at node 0)
Average injected packet rate = 0.00296953
Maximum injected packet rate = 0.00676667 (at node 117)
Minimum accepted packet rate = 0 (at node 0)
Average accepted packet rate = 0.00295729
Maximum accepted packet rate = 0.00716667 (at node 88)
Minimum injected flit rate = 0 (at node 0)
Average injected flit rate = 0.00296953
Maximum injected flit rate = 0.00676667 (at node 117)
Minimum accepted flit rate = 0 (at node 0)
Average accepted flit rate = 0.00295729
Maximum accepted flit rate = 0.00716667 (at node 88)
Total number of injected packets = 11403
Total number of injected flits = 11403
Average injected packet length = 1
Total number of accepted packets = 11356
Total number of accepted flits = 11356
Average accepted packet length = 1
Total in-flight flits = 241 (241 measured)
class 0 latency change    = 0.00363518
class 0 throughput change = 0.00218387
===== Time: 40000 =====
Class 0:
Minimum packet latency = 62
Average packet latency = 591.018
Maximum packet latency = 2377
Minimum network latency = 63
Average network latency = 587.525
Maximum network latency = 2272
Slowest packet = 2621
Minimum flit latency = 63
Average flit latency = 589.817
Maximum flit latency = 2272
Slowest flit = 4265
Minimum fragmentation = 0
Average fragmentation = 0
Maximum fragmentation = 0
Minimum injected packet rate = 0 (at node 0)
Average injected packet rate = 0.00297455
Maximum injected packet rate = 0.00674286 (at node 120)
Minimum accepted packet rate = 0 (at node 0)
Average accepted packet rate = 0.00296607
Maximum accepted packet rate = 0.00697143 (at node 88)
Minimum injected flit rate = 0 (at node 0)
Average injected flit rate = 0.00297455
Maximum injected flit rate = 0.00674286 (at node 120)
Minimum accepted flit rate = 0 (at node 0)
Average accepted flit rate = 0.00296607
Maximum accepted flit rate = 0.00697143 (at node 88)
Total number of injected packets = 13326
Total number of injected flits = 13326
Average injected packet length = 1
Total number of accepted packets = 13288
Total number of accepted flits = 13288
Average accepted packet length = 1
Total in-flight flits = 234 (234 measured)
class 0 latency change    = 0.00676331
class 0 throughput change = 0.00296006
===== Time: 45000 =====
Class 0:
Minimum packet latency = 62
Average packet latency = 592.183
Maximum packet latency = 2377
Minimum network latency = 63
Average network latency = 588.646
Maximum network latency = 2272
Slowest packet = 2621
Minimum flit latency = 63
Average flit latency = 590.634
Maximum flit latency = 2272
Slowest flit = 4265
Minimum fragmentation = 0
Average fragmentation = 0
Maximum fragmentation = 0
Minimum injected packet rate = 0 (at node 0)
Average injected packet rate = 0.00297695
Maximum injected packet rate = 0.006725 (at node 86)
Minimum accepted packet rate = 0 (at node 0)
Average accepted packet rate = 0.0029709
Maximum accepted packet rate = 0.006775 (at node 75)
Minimum injected flit rate = 0 (at node 0)
Average injected flit rate = 0.00297695
Maximum injected flit rate = 0.006725 (at node 86)
Minimum accepted flit rate = 0 (at node 0)
Average accepted flit rate = 0.0029709
Maximum accepted flit rate = 0.006775 (at node 75)
Total number of injected packets = 15242
Total number of injected flits = 15242
Average injected packet length = 1
Total number of accepted packets = 15211
Total number of accepted flits = 15211
Average accepted packet length = 1
Total in-flight flits = 225 (225 measured)
class 0 latency change    = 0.00196728
class 0 throughput change = 0.00162476
===== Time: 50000 =====
Class 0:
Minimum packet latency = 62
Average packet latency = 600.689
Maximum packet latency = 2653
Minimum network latency = 63
Average network latency = 596.514
Maximum network latency = 2654
Slowest packet = 17528
Minimum flit latency = 63
Average flit latency = 598.183
Maximum flit latency = 2654
Slowest flit = 17528
Minimum fragmentation = 0
Average fragmentation = 0
Maximum fragmentation = 0
Minimum injected packet rate = 0 (at node 0)
Average injected packet rate = 0.00299236
Maximum injected packet rate = 0.0068 (at node 86)
Minimum accepted packet rate = 0 (at node 0)
Average accepted packet rate = 0.00298663
Maximum accepted packet rate = 0.00682222 (at node 102)
Minimum injected flit rate = 0 (at node 0)
Average injected flit rate = 0.00299236
Maximum injected flit rate = 0.0068 (at node 86)
Minimum accepted flit rate = 0 (at node 0)
Average accepted flit rate = 0.00298663
Maximum accepted flit rate = 0.00682222 (at node 102)
Total number of injected packets = 17236
Total number of injected flits = 17236
Average injected packet length = 1
Total number of accepted packets = 17203
Total number of accepted flits = 17203
Average accepted packet length = 1
Total in-flight flits = 229 (229 measured)
class 0 latency change    = 0.0141607
class 0 throughput change = 0.00526798
===== Time: 55000 =====
Class 0:
Minimum packet latency = 62
Average packet latency = 600.899
Maximum packet latency = 2653
Minimum network latency = 63
Average network latency = 596.71
Maximum network latency = 2654
Slowest packet = 17528
Minimum flit latency = 63
Average flit latency = 598.207
Maximum flit latency = 2654
Slowest flit = 17528
Minimum fragmentation = 0
Average fragmentation = 0
Maximum fragmentation = 0
Minimum injected packet rate = 0 (at node 0)
Average injected packet rate = 0.00299609
Maximum injected packet rate = 0.00672 (at node 117)
Minimum accepted packet rate = 0 (at node 0)
Average accepted packet rate = 0.00299156
Maximum accepted packet rate = 0.00672 (at node 102)
Minimum injected flit rate = 0 (at node 0)
Average injected flit rate = 0.00299609
Maximum injected flit rate = 0.00672 (at node 117)
Minimum accepted flit rate = 0 (at node 0)
Average accepted flit rate = 0.00299156
Maximum accepted flit rate = 0.00672 (at node 102)
Total number of injected packets = 19175
Total number of injected flits = 19175
Average injected packet length = 1
Total number of accepted packets = 19146
Total number of accepted flits = 19146
Average accepted packet length = 1
Total in-flight flits = 223 (223 measured)
class 0 latency change    = 0.000349161
class 0 throughput change = 0.00164815
Draining remaining packets ...
Time taken is 55865 cycles
====== Traffic class 0 ======

Total number of flits generated = 21010, changed lanes = 0
Overall minimum packet latency = 62 (1 samples)
Overall average packet latency = 601.732 (1 samples)
Overall maximum packet latency = 2653 (1 samples)
Overall minimum network latency = 63 (1 samples)
Overall average network latency = 597.595 (1 samples)
Overall maximum network latency = 2654 (1 samples)
Overall minimum flit latency = 63 (1 samples)
Overall average flit latency = 599.066 (1 samples)
Overall maximum flit latency = 2654 (1 samples)
Overall minimum fragmentation = 0 (1 samples)
Overall average fragmentation = 0 (1 samples)
Overall maximum fragmentation = 0 (1 samples)
Overall minimum injected packet rate = 0 (1 samples)
Overall average injected packet rate = 0.00299609 (1 samples)
Overall maximum injected packet rate = 0.00672 (1 samples)
Overall minimum accepted packet rate = 0 (1 samples)
Overall average accepted packet rate = 0.00299156 (1 samples)
Overall maximum accepted packet rate = 0.00672 (1 samples)
Overall minimum injected flit rate = 0 (1 samples)
Overall average injected flit rate = 0.00299609 (1 samples)
Overall maximum injected flit rate = 0.00672 (1 samples)
Overall minimum accepted flit rate = 0 (1 samples)
Overall average accepted flit rate = 0.00299156 (1 samples)
Overall maximum accepted flit rate = 0.00672 (1 samples)
Overall average injected packet size = 1 (1 samples)
Overall average accepted packet size = 1 (1 samples)
Overall average hops = 7.7244 (1 samples)
Overall throughput of the network (flits/cycle) = 0.4202
Overall throughput of the network (packets/cycle) = 0.4202
CSV Result Header , avgFLat,avgFInjRate
CSV Result ,599.066,0.00299609

Power Report Header, Frequency, Time, StaticIQ, DynamicIQ, StaticVC, DynamicVC, StaticSA, DynamicSA, StaticST, DynamicST, StaticLink, DynamicLink, NoFlits, ePerFlit
Power Report,3.9e+08,55865,0.131875,0.0101619,0.00749762,0.000298393,0.00224928,0.000263256,0.477597,0.00333651,0.0905466,0.00704859,21010,4.98504e-09

*****************************************
Total run time 19.0382
generate:0x7ffdb177ffe0
delete:0x7ffdb177ffe0
L = 2 K = 8.1 M = 2 N = 1
-----------------------------------------
- OCN Power Summary
- Completion Time:         55865
- Flit Widths:            64
- Channel Wire Power:      0.949554
- Channel Clock Power:     1.46183
- Channel Retiming Power:  0.0117977
- Channel Leakage Power:   0.551082
- Input Read Power:        0.0294231
- Input Write Power:       0.0294231
- Input Leakage Power:     0.113246
- Switch Power:            0.0634332
- Switch Control Power:    0.0330341
- Switch Leakage Power:    0.771052
- Output DFF Power:        0.00685759
- Output Clk Power:        0.727126
- Output Control Power:    0.00353909
- Total Power:             4.75139
-----------------------------------------

-----------------------------------------
- OCN Area Summary
- Channel Area:  0.109536
- Switch  Area:  0.241592
- Input  Area:   0.120796
- Output  Area:  0.0201327
- Total Area:    0.492056
-----------------------------------------
CSV Power Result Header , Completion Time, Channel Wire, Channel Clock, Channel Retiming, Channel Leakage, Input Read, Input Write, Input Leakage, Switch Power, Switch Control, Switch Leakage, Output DFF, Output Clk, Output Control
CSV Power Result , 55865, 0.949554, 1.46183, 0.0117977, 0.551082, 0.0294231, 0.0294231, 0.113246, 0.0634332, 0.0330341, 0.771052, 0.00685759, 0.727126, 0.00353909
delete:0x7ffdb177ffe0
delete:0x7ffdb177ffe0
delete:0x7ffdb177ffe0
delete:0x7ffdb177ffe0
delete:0x7ffdb177ffe0
delete:0x7ffdb177ffe0
