generate:0x7ffdd8bbc350
generate:0x7ffdd8bbc408
generate:0x7ffdd8bbc4c0
generate:0x7ffdd8bbc578
generate:0x7ffdd8bbc630
generate:0x7ffdd8bbc6e8
generate:0x7ffdd8bbc7a0
generate:0x7ffdd8bbc858
generate:0x7ffdd8bbc910
generate:0x7ffdd8bbc9c8
generate:0x7ffdd8bbca80
generate:0x7ffdd8bbcb38
generate:0x7ffdd8bbcbf0
generate:0x7ffdd8bbcca8
generate:0x7ffdd8bbcd60
generate:0x7ffdd8bbce18
generate:0x7ffdd8bbced0
generate:0x7ffdd8bbd040
BEGIN Configuration File: interposer2
//topology
topology = mesh;
k = 8;
n = 2;
type = interposer;
// Routing
routing_function = dor;

// Flow control
num_vcs     = 2;
vc_buf_size = 8;
wait_for_tail_credit = 1;
hold_switch_for_packet = 1;

// Router architecture
vc_allocator = islip;
sw_allocator = islip;
alloc_iters  = 1;

credit_delay   = 0;
routing_delay  = 1;
vc_alloc_delay = 1;
sw_alloc_delay = 1;
st_final_delay = 1;

input_speedup     = 1;
output_speedup    = 1;
internal_speedup  = 1.0;
vc_busy_when_full = 0;


//granulaity
latency_thres=20000.0;
deadlock_warn_timeout=20000;
traceStretch=3;

//gating
doGating=0;
sleepThreshold=40;
breakEvenThreshold=80;



//Syn Traffic
//sim_type=latency;
sim_type=throughput;
traffic=uniform;
packet_size = 1;
sample_period=5000;
warmup_periods=1;
max_samples=11;
injection_rate=0.002;

creditDelays=creditDelays({0,0,0,0,0,0,0,0,0,0,0,0,0,0,0,0,0,0,0,0,0,0,0,0,0,0,0,0,0,0,0,0,0,0,0,0,0,0,0,0,0,0,0,0,0,0,0,0,0,0,0,0,0,0,0,0,0,0,0,0,0,0,0,0}});
routingDelays=routingDelays({15,15,15,15,15,15,15,15,15,15,15,15,15,15,15,15,15,15,15,15,15,15,15,15,15,15,15,15,15,15,15,15,15,15,15,15,15,15,15,15,15,15,15,15,15,15,15,15,15,15,15,15,15,15,15,15,15,15,15,15,15,15,15,15});
vcAllocDelays=vcAllocDelays({15,15,15,15,15,15,15,15,15,15,15,15,15,15,15,15,15,15,15,15,15,15,15,15,15,15,15,15,15,15,15,15,15,15,15,15,15,15,15,15,15,15,15,15,15,15,15,15,15,15,15,15,15,15,15,15,15,15,15,15,15,15,15,15});
swAllocDelays=swAllocDelays({15,15,15,15,15,15,15,15,15,15,15,15,15,15,15,15,15,15,15,15,15,15,15,15,15,15,15,15,15,15,15,15,15,15,15,15,15,15,15,15,15,15,15,15,15,15,15,15,15,15,15,15,15,15,15,15,15,15,15,15,15,15,15,15});
stFinalDelays=stFinalDelays({15,15,15,15,15,15,15,15,15,15,15,15,15,15,15,15,15,15,15,15,15,15,15,15,15,15,15,15,15,15,15,15,15,15,15,15,15,15,15,15,15,15,15,15,15,15,15,15,15,15,15,15,15,15,15,15,15,15,15,15,15,15,15,15});

isAsync=isAsync({0,0,0,0,0,0,0,0,0,0,0,0,0,0,0,0,0,0,0,0,0,0,0,0,0,0,0,0,0,0,0,0,0,0,0,0,0,0,0,0,0,0,0,0,0,0,0,0,0,0,0,0,0,0,0,0,0,0,0,0,0,0,0,0});
isMetaUnstable=isMetaUnstable({0,0,0,0,0,0,0,0,0,0,0,0,0,0,0,0,0,0,0,0,0,0,0,0,0,0,0,0,0,0,0,0,0,0,0,0,0,0,0,0,0,0,0,0,0,0,0,0,0,0,0,0,0,0,0,0,0,0,0,0,0,0,0,0});

creditDelayStdDevs=creditDelayStdDevs({0,0,0,0,0,0,0,0,0,0,0,0,0,0,0,0,0,0,0,0,0,0,0,0,0,0,0,0,0,0,0,0,0,0,0,0,0,0,0,0,0,0,0,0,0,0,0,0,0,0,0,0,0,0,0,0,0,0,0,0,0,0,0,0});
routingDelayStdDevs=routingDelayStdDevs({0,0,0,0,0,0,0,0,0,0,0,0,0,0,0,0,0,0,0,0,0,0,0,0,0,0,0,0,0,0,0,0,0,0,0,0,0,0,0,0,0,0,0,0,0,0,0,0,0,0,0,0,0,0,0,0,0,0,0,0,0,0,0,0});
vcAllocDelayStdDevs=vcAllocDelayStdDevs({0,0,0,0,0,0,0,0,0,0,0,0,0,0,0,0,0,0,0,0,0,0,0,0,0,0,0,0,0,0,0,0,0,0,0,0,0,0,0,0,0,0,0,0,0,0,0,0,0,0,0,0,0,0,0,0,0,0,0,0,0,0,0,0});
swAllocDelayStdDevs=swAllocDelayStdDevs({0,0,0,0,0,0,0,0,0,0,0,0,0,0,0,0,0,0,0,0,0,0,0,0,0,0,0,0,0,0,0,0,0,0,0,0,0,0,0,0,0,0,0,0,0,0,0,0,0,0,0,0,0,0,0,0,0,0,0,0,0,0,0,0});
stFinalDelayStdDevs=stFinalDelayStdDevs({0,0,0,0,0,0,0,0,0,0,0,0,0,0,0,0,0,0,0,0,0,0,0,0,0,0,0,0,0,0,0,0,0,0,0,0,0,0,0,0,0,0,0,0,0,0,0,0,0,0,0,0,0,0,0,0,0,0,0,0,0,0,0,0});

  
swAllocThresholds=swAllocThresholds({1,1,1,1,1,1,1,1,1,1,1,1,1,1,1,1,1,1,1,1,1,1,1,1,1,1,1,1,1,1,1,1,1,1,1,1,1,1,1,1,1,1,1,1,1,1,1,1,1,1,1,1,1,1,1,1,1,1,1,1,1,1,1,1});
swAllocThresholdStdDevs=swAllocThresholdStdDevs({0,0,0,0,0,0,0,0,0,0,0,0,0,0,0,0,0,0,0,0,0,0,0,0,0,0,0,0,0,0,0,0,0,0,0,0,0,0,0,0,0,0,0,0,0,0,0,0,0,0,0,0,0,0,0,0,0,0,0,0,0,0,0,0});
swAllocMetaStableThresholds=swAllocMetaStableThresholds({1,1,1,1,1,1,1,1,1,1,1,1,1,1,1,1,1,1,1,1,1,1,1,1,1,1,1,1,1,1,1,1,1,1,1,1,1,1,1,1,1,1,1,1,1,1,1,1,1,1,1,1,1,1,1,1,1,1,1,1,1,1,1,1});
swAllocMetaStableMaxPenalities=swAllocMetaStableMaxPenalities({0,0,0,0,0,0,0,0,0,0,0,0,0,0,0,0,0,0,0,0,0,0,0,0,0,0,0,0,0,0,0,0,0,0,0,0,0,0,0,0,0,0,0,0,0,0,0,0,0,0,0,0,0,0,0,0,0,0,0,0,0,0,0,0});

END Configuration File: interposer2
BEGIN Configuration File: chiplet16/chip1
//topology
topology = mesh;
k = 2;
n = 2;
type = chip;
start_point = 0;
cnum=1;
// Routing
routing_function = dor;

// Flow control
num_vcs     = 2;
vc_buf_size = 8;
wait_for_tail_credit = 1;
hold_switch_for_packet = 1;

// Router architecture
vc_allocator = islip;
sw_allocator = islip;
alloc_iters  = 1;

credit_delay   = 0;
routing_delay  = 1;
vc_alloc_delay = 1;
sw_alloc_delay = 1;
st_final_delay = 1;

input_speedup     = 1;
output_speedup    = 1;
internal_speedup  = 1.0;
vc_busy_when_full = 0;


//granulaity
latency_thres=20000.0;
deadlock_warn_timeout=20000;
traceStretch=3;

//gating
doGating=0;
sleepThreshold=40;
breakEvenThreshold=80;



//Syn Traffic
sim_type=latency;
traffic=uniform;
packet_size = 1;
sample_period=50000;
warmup_periods=1;
max_samples=12;
injection_rate=0.01;

creditDelays=creditDelays({0,0,0,0});
routingDelays=routingDelays({15,15,15,15});
vcAllocDelays=vcAllocDelays({15,15,15,15});
swAllocDelays=swAllocDelays({15,15,15,15});
stFinalDelays=stFinalDelays({15,15,15,15});

isAsync=isAsync({0,0,0,0});
isMetaUnstable=isMetaUnstable({0,0,0,0});

creditDelayStdDevs=creditDelayStdDevs({0,0,0,0});
routingDelayStdDevs=routingDelayStdDevs({0,0,0,0});
vcAllocDelayStdDevs=vcAllocDelayStdDevs({0,0,0,0});
swAllocDelayStdDevs=swAllocDelayStdDevs({0,0,0,0});
stFinalDelayStdDevs=stFinalDelayStdDevs({0,0,0,0});

  
swAllocThresholds=swAllocThresholds({1,1,1,1});
swAllocThresholdStdDevs=swAllocThresholdStdDevs({0,0,0,0});
swAllocMetaStableThresholds=swAllocMetaStableThresholds({1,1,1,1});
swAllocMetaStableMaxPenalities=swAllocMetaStableMaxPenalities({0,0,0,0});

END Configuration File: chiplet16/chip1
BEGIN Configuration File: chiplet16/chip2
//topology
topology = mesh;
k = 2;
n = 2;
type = chip;
start_point = 2;
cnum=2;
// Routing
routing_function = dor;

// Flow control
num_vcs     = 2;
vc_buf_size = 8;
wait_for_tail_credit = 1;
hold_switch_for_packet = 1;

// Router architecture
vc_allocator = islip;
sw_allocator = islip;
alloc_iters  = 1;

credit_delay   = 0;
routing_delay  = 1;
vc_alloc_delay = 1;
sw_alloc_delay = 1;
st_final_delay = 1;

input_speedup     = 1;
output_speedup    = 1;
internal_speedup  = 1.0;
vc_busy_when_full = 0;


//granulaity
latency_thres=20000.0;
deadlock_warn_timeout=20000;
traceStretch=3;

//gating
doGating=0;
sleepThreshold=40;
breakEvenThreshold=80;



//Syn Traffic
sim_type=latency;
traffic=uniform;
packet_size = 1;
sample_period=50000;
warmup_periods=1;
max_samples=12;
injection_rate=0.01;

creditDelays=creditDelays({0,0,0,0});
routingDelays=routingDelays({15,15,15,15});
vcAllocDelays=vcAllocDelays({15,15,15,15});
swAllocDelays=swAllocDelays({15,15,15,15});
stFinalDelays=stFinalDelays({15,15,15,15});

isAsync=isAsync({0,0,0,0});
isMetaUnstable=isMetaUnstable({0,0,0,0});

creditDelayStdDevs=creditDelayStdDevs({0,0,0,0});
routingDelayStdDevs=routingDelayStdDevs({0,0,0,0});
vcAllocDelayStdDevs=vcAllocDelayStdDevs({0,0,0,0});
swAllocDelayStdDevs=swAllocDelayStdDevs({0,0,0,0});
stFinalDelayStdDevs=stFinalDelayStdDevs({0,0,0,0});

  
swAllocThresholds=swAllocThresholds({1,1,1,1});
swAllocThresholdStdDevs=swAllocThresholdStdDevs({0,0,0,0});
swAllocMetaStableThresholds=swAllocMetaStableThresholds({1,1,1,1});
swAllocMetaStableMaxPenalities=swAllocMetaStableMaxPenalities({0,0,0,0});

END Configuration File: chiplet16/chip2
BEGIN Configuration File: chiplet16/chip3
//topology
topology = mesh;
k = 2;
n = 2;
type = chip;
start_point = 4;
cnum=3;
// Routing
routing_function = dor;

// Flow control
num_vcs     = 2;
vc_buf_size = 8;
wait_for_tail_credit = 1;
hold_switch_for_packet = 1;

// Router architecture
vc_allocator = islip;
sw_allocator = islip;
alloc_iters  = 1;

credit_delay   = 0;
routing_delay  = 1;
vc_alloc_delay = 1;
sw_alloc_delay = 1;
st_final_delay = 1;

input_speedup     = 1;
output_speedup    = 1;
internal_speedup  = 1.0;
vc_busy_when_full = 0;


//granulaity
latency_thres=20000.0;
deadlock_warn_timeout=20000;
traceStretch=3;

//gating
doGating=0;
sleepThreshold=40;
breakEvenThreshold=80;



//Syn Traffic
sim_type=latency;
traffic=uniform;
packet_size = 1;
sample_period=50000;
warmup_periods=1;
max_samples=12;
injection_rate=0.01;

creditDelays=creditDelays({0,0,0,0});
routingDelays=routingDelays({15,15,15,15});
vcAllocDelays=vcAllocDelays({15,15,15,15});
swAllocDelays=swAllocDelays({15,15,15,15});
stFinalDelays=stFinalDelays({15,15,15,15});

isAsync=isAsync({0,0,0,0});
isMetaUnstable=isMetaUnstable({0,0,0,0});

creditDelayStdDevs=creditDelayStdDevs({0,0,0,0});
routingDelayStdDevs=routingDelayStdDevs({0,0,0,0});
vcAllocDelayStdDevs=vcAllocDelayStdDevs({0,0,0,0});
swAllocDelayStdDevs=swAllocDelayStdDevs({0,0,0,0});
stFinalDelayStdDevs=stFinalDelayStdDevs({0,0,0,0});

  
swAllocThresholds=swAllocThresholds({1,1,1,1});
swAllocThresholdStdDevs=swAllocThresholdStdDevs({0,0,0,0});
swAllocMetaStableThresholds=swAllocMetaStableThresholds({1,1,1,1});
swAllocMetaStableMaxPenalities=swAllocMetaStableMaxPenalities({0,0,0,0});

END Configuration File: chiplet16/chip3
BEGIN Configuration File: chiplet16/chip4
//topology
topology = mesh;
k = 2;
n = 2;
type = chip;
start_point = 6;
cnum=4;
// Routing
routing_function = dor;

// Flow control
num_vcs     = 2;
vc_buf_size = 8;
wait_for_tail_credit = 1;
hold_switch_for_packet = 1;

// Router architecture
vc_allocator = islip;
sw_allocator = islip;
alloc_iters  = 1;

credit_delay   = 0;
routing_delay  = 1;
vc_alloc_delay = 1;
sw_alloc_delay = 1;
st_final_delay = 1;

input_speedup     = 1;
output_speedup    = 1;
internal_speedup  = 1.0;
vc_busy_when_full = 0;


//granulaity
latency_thres=20000.0;
deadlock_warn_timeout=20000;
traceStretch=3;

//gating
doGating=0;
sleepThreshold=40;
breakEvenThreshold=80;



//Syn Traffic
sim_type=latency;
traffic=uniform;
packet_size = 1;
sample_period=50000;
warmup_periods=1;
max_samples=12;
injection_rate=0.01;

creditDelays=creditDelays({0,0,0,0});
routingDelays=routingDelays({15,15,15,15});
vcAllocDelays=vcAllocDelays({15,15,15,15});
swAllocDelays=swAllocDelays({15,15,15,15});
stFinalDelays=stFinalDelays({15,15,15,15});

isAsync=isAsync({0,0,0,0});
isMetaUnstable=isMetaUnstable({0,0,0,0});

creditDelayStdDevs=creditDelayStdDevs({0,0,0,0});
routingDelayStdDevs=routingDelayStdDevs({0,0,0,0});
vcAllocDelayStdDevs=vcAllocDelayStdDevs({0,0,0,0});
swAllocDelayStdDevs=swAllocDelayStdDevs({0,0,0,0});
stFinalDelayStdDevs=stFinalDelayStdDevs({0,0,0,0});

  
swAllocThresholds=swAllocThresholds({1,1,1,1});
swAllocThresholdStdDevs=swAllocThresholdStdDevs({0,0,0,0});
swAllocMetaStableThresholds=swAllocMetaStableThresholds({1,1,1,1});
swAllocMetaStableMaxPenalities=swAllocMetaStableMaxPenalities({0,0,0,0});

END Configuration File: chiplet16/chip4
BEGIN Configuration File: chiplet16/chip5
//topology
topology = mesh;
k = 2;
n = 2;
type = chip;
start_point = 8;
cnum=5;
//16
// Routing
routing_function = dor;

// Flow control
num_vcs     = 2;
vc_buf_size = 8;
wait_for_tail_credit = 1;
hold_switch_for_packet = 1;

// Router architecture
vc_allocator = islip;
sw_allocator = islip;
alloc_iters  = 1;

credit_delay   = 1;
routing_delay  = 1;
vc_alloc_delay = 1;
sw_alloc_delay = 1;
st_final_delay = 1;

input_speedup     = 1;
output_speedup    = 1;
internal_speedup  = 1.0;
vc_busy_when_full = 0;


//granulaity
latency_thres=20000.0;
deadlock_warn_timeout=20000;
traceStretch=3;

//gating
doGating=0;
sleepThreshold=40;
breakEvenThreshold=80;



//Syn Traffic
sim_type=latency;
traffic=uniform;
packet_size = 1;
sample_period=50000;
warmup_periods=1;
max_samples=12;
injection_rate=0.01;

creditDelays=creditDelays({0,0,0,0});
routingDelays=routingDelays({15,15,15,15});
vcAllocDelays=vcAllocDelays({15,15,15,15});
swAllocDelays=swAllocDelays({15,15,15,15});
stFinalDelays=stFinalDelays({15,15,15,15});

isAsync=isAsync({0,0,0,0});
isMetaUnstable=isMetaUnstable({0,0,0,0});

creditDelayStdDevs=creditDelayStdDevs({0,0,0,0});
routingDelayStdDevs=routingDelayStdDevs({0,0,0,0});
vcAllocDelayStdDevs=vcAllocDelayStdDevs({0,0,0,0});
swAllocDelayStdDevs=swAllocDelayStdDevs({0,0,0,0});
stFinalDelayStdDevs=stFinalDelayStdDevs({0,0,0,0});

  
swAllocThresholds=swAllocThresholds({1,1,1,1});
swAllocThresholdStdDevs=swAllocThresholdStdDevs({0,0,0,0});
swAllocMetaStableThresholds=swAllocMetaStableThresholds({1,1,1,1});
swAllocMetaStableMaxPenalities=swAllocMetaStableMaxPenalities({0,0,0,0});

END Configuration File: chiplet16/chip5
BEGIN Configuration File: chiplet16/chip6
//topology
topology = mesh;
k = 2;
n = 2;
type = chip;
start_point = 10;
cnum=6;
//18
// Routing
routing_function = dor;

// Flow control
num_vcs     = 2;
vc_buf_size = 8;
wait_for_tail_credit = 1;
hold_switch_for_packet = 1;

// Router architecture
vc_allocator = islip;
sw_allocator = islip;
alloc_iters  = 1;

credit_delay   = 0;
routing_delay  = 1;
vc_alloc_delay = 1;
sw_alloc_delay = 1;
st_final_delay = 1;

input_speedup     = 1;
output_speedup    = 1;
internal_speedup  = 1.0;
vc_busy_when_full = 0;


//granulaity
latency_thres=20000.0;
deadlock_warn_timeout=20000;
traceStretch=3;

//gating
doGating=0;
sleepThreshold=40;
breakEvenThreshold=80;



//Syn Traffic
sim_type=latency;
traffic=uniform;
packet_size = 1;
sample_period=50000;
warmup_periods=1;
max_samples=12;
injection_rate=0.01;

creditDelays=creditDelays({0,0,0,0});
routingDelays=routingDelays({15,15,15,15});
vcAllocDelays=vcAllocDelays({15,15,15,15});
swAllocDelays=swAllocDelays({15,15,15,15});
stFinalDelays=stFinalDelays({15,15,15,15});

isAsync=isAsync({0,0,0,0});
isMetaUnstable=isMetaUnstable({0,0,0,0});

creditDelayStdDevs=creditDelayStdDevs({0,0,0,0});
routingDelayStdDevs=routingDelayStdDevs({0,0,0,0});
vcAllocDelayStdDevs=vcAllocDelayStdDevs({0,0,0,0});
swAllocDelayStdDevs=swAllocDelayStdDevs({0,0,0,0});
stFinalDelayStdDevs=stFinalDelayStdDevs({0,0,0,0});

  
swAllocThresholds=swAllocThresholds({1,1,1,1});
swAllocThresholdStdDevs=swAllocThresholdStdDevs({0,0,0,0});
swAllocMetaStableThresholds=swAllocMetaStableThresholds({1,1,1,1});
swAllocMetaStableMaxPenalities=swAllocMetaStableMaxPenalities({0,0,0,0});

END Configuration File: chiplet16/chip6
BEGIN Configuration File: chiplet16/chip7
//topology
topology = mesh;
k = 2;
n = 2;
type = chip;
start_point = 20;
cnum=7;
// Routing
routing_function = dor;

// Flow control
num_vcs     = 2;
vc_buf_size = 8;
wait_for_tail_credit = 1;
hold_switch_for_packet = 1;

// Router architecture
vc_allocator = islip;
sw_allocator = islip;
alloc_iters  = 1;

credit_delay   = 0;
routing_delay  = 1;
vc_alloc_delay = 1;
sw_alloc_delay = 1;
st_final_delay = 1;

input_speedup     = 1;
output_speedup    = 1;
internal_speedup  = 1.0;
vc_busy_when_full = 0;


//granulaity
latency_thres=20000.0;
deadlock_warn_timeout=20000;
traceStretch=3;

//gating
doGating=0;
sleepThreshold=40;
breakEvenThreshold=80;



//Syn Traffic
sim_type=latency;
traffic=uniform;
packet_size = 1;
sample_period=50000;
warmup_periods=1;
max_samples=12;
injection_rate=0.01;

creditDelays=creditDelays({0,0,0,0});
routingDelays=routingDelays({15,15,15,15});
vcAllocDelays=vcAllocDelays({15,15,15,15});
swAllocDelays=swAllocDelays({15,15,15,15});
stFinalDelays=stFinalDelays({15,15,15,15});

isAsync=isAsync({0,0,0,0});
isMetaUnstable=isMetaUnstable({0,0,0,0});

creditDelayStdDevs=creditDelayStdDevs({0,0,0,0});
routingDelayStdDevs=routingDelayStdDevs({0,0,0,0});
vcAllocDelayStdDevs=vcAllocDelayStdDevs({0,0,0,0});
swAllocDelayStdDevs=swAllocDelayStdDevs({0,0,0,0});
stFinalDelayStdDevs=stFinalDelayStdDevs({0,0,0,0});

  
swAllocThresholds=swAllocThresholds({1,1,1,1});
swAllocThresholdStdDevs=swAllocThresholdStdDevs({0,0,0,0});
swAllocMetaStableThresholds=swAllocMetaStableThresholds({1,1,1,1});
swAllocMetaStableMaxPenalities=swAllocMetaStableMaxPenalities({0,0,0,0});

END Configuration File: chiplet16/chip7
BEGIN Configuration File: chiplet16/chip8
//topology
topology = mesh;
k = 2;
n = 2;
type = chip;
start_point = 22;
cnum=8;
// Routing
routing_function = dor;

// Flow control
num_vcs     = 2;
vc_buf_size = 8;
wait_for_tail_credit = 1;
hold_switch_for_packet = 1;

// Router architecture
vc_allocator = islip;
sw_allocator = islip;
alloc_iters  = 1;

credit_delay   = 0;
routing_delay  = 1;
vc_alloc_delay = 1;
sw_alloc_delay = 1;
st_final_delay = 1;

input_speedup     = 1;
output_speedup    = 1;
internal_speedup  = 1.0;
vc_busy_when_full = 0;


//granulaity
latency_thres=20000.0;
deadlock_warn_timeout=20000;
traceStretch=3;

//gating
doGating=0;
sleepThreshold=40;
breakEvenThreshold=80;



//Syn Traffic
sim_type=latency;
traffic=uniform;
packet_size = 1;
sample_period=50000;
warmup_periods=1;
max_samples=12;
injection_rate=0.01;

creditDelays=creditDelays({0,0,0,0});
routingDelays=routingDelays({15,15,15,15});
vcAllocDelays=vcAllocDelays({15,15,15,15});
swAllocDelays=swAllocDelays({15,15,15,15});
stFinalDelays=stFinalDelays({15,15,15,15});

isAsync=isAsync({0,0,0,0});
isMetaUnstable=isMetaUnstable({0,0,0,0});

creditDelayStdDevs=creditDelayStdDevs({0,0,0,0});
routingDelayStdDevs=routingDelayStdDevs({0,0,0,0});
vcAllocDelayStdDevs=vcAllocDelayStdDevs({0,0,0,0});
swAllocDelayStdDevs=swAllocDelayStdDevs({0,0,0,0});
stFinalDelayStdDevs=stFinalDelayStdDevs({0,0,0,0});

  
swAllocThresholds=swAllocThresholds({1,1,1,1});
swAllocThresholdStdDevs=swAllocThresholdStdDevs({0,0,0,0});
swAllocMetaStableThresholds=swAllocMetaStableThresholds({1,1,1,1});
swAllocMetaStableMaxPenalities=swAllocMetaStableMaxPenalities({0,0,0,0});

END Configuration File: chiplet16/chip8
BEGIN Configuration File: chiplet16/chip9
//topology
topology = mesh;
k = 2;
n = 2;
type = chip;
start_point = 32;
cnum=9;
// Routing
routing_function = dor;

// Flow control
num_vcs     = 2;
vc_buf_size = 8;
wait_for_tail_credit = 1;
hold_switch_for_packet = 1;

// Router architecture
vc_allocator = islip;
sw_allocator = islip;
alloc_iters  = 1;

credit_delay   = 0;
routing_delay  = 1;
vc_alloc_delay = 1;
sw_alloc_delay = 1;
st_final_delay = 1;

input_speedup     = 1;
output_speedup    = 1;
internal_speedup  = 1.0;
vc_busy_when_full = 0;


//granulaity
latency_thres=20000.0;
deadlock_warn_timeout=20000;
traceStretch=3;

//gating
doGating=0;
sleepThreshold=40;
breakEvenThreshold=80;



//Syn Traffic
sim_type=latency;
traffic=uniform;
packet_size = 1;
sample_period=50000;
warmup_periods=1;
max_samples=12;
injection_rate=0.01;

creditDelays=creditDelays({0,0,0,0});
routingDelays=routingDelays({15,15,15,15});
vcAllocDelays=vcAllocDelays({15,15,15,15});
swAllocDelays=swAllocDelays({15,15,15,15});
stFinalDelays=stFinalDelays({15,15,15,15});

isAsync=isAsync({0,0,0,0});
isMetaUnstable=isMetaUnstable({0,0,0,0});

creditDelayStdDevs=creditDelayStdDevs({0,0,0,0});
routingDelayStdDevs=routingDelayStdDevs({0,0,0,0});
vcAllocDelayStdDevs=vcAllocDelayStdDevs({0,0,0,0});
swAllocDelayStdDevs=swAllocDelayStdDevs({0,0,0,0});
stFinalDelayStdDevs=stFinalDelayStdDevs({0,0,0,0});

  
swAllocThresholds=swAllocThresholds({1,1,1,1});
swAllocThresholdStdDevs=swAllocThresholdStdDevs({0,0,0,0});
swAllocMetaStableThresholds=swAllocMetaStableThresholds({1,1,1,1});
swAllocMetaStableMaxPenalities=swAllocMetaStableMaxPenalities({0,0,0,0});

END Configuration File: chiplet16/chip9
BEGIN Configuration File: chiplet16/chip10
//topology
topology = mesh;
k = 2;
n = 2;
type = chip;
start_point = 34;
cnum=10;
// Routing
routing_function = dor;

// Flow control
num_vcs     = 2;
vc_buf_size = 8;
wait_for_tail_credit = 1;
hold_switch_for_packet = 1;

// Router architecture
vc_allocator = islip;
sw_allocator = islip;
alloc_iters  = 1;

credit_delay   = 0;
routing_delay  = 1;
vc_alloc_delay = 1;
sw_alloc_delay = 1;
st_final_delay = 1;

input_speedup     = 1;
output_speedup    = 1;
internal_speedup  = 1.0;
vc_busy_when_full = 0;


//granulaity
latency_thres=20000.0;
deadlock_warn_timeout=20000;
traceStretch=3;

//gating
doGating=0;
sleepThreshold=40;
breakEvenThreshold=80;



//Syn Traffic
sim_type=latency;
traffic=uniform;
packet_size = 1;
sample_period=50000;
warmup_periods=1;
max_samples=12;
injection_rate=0.01;

creditDelays=creditDelays({0,0,0,0});
routingDelays=routingDelays({15,15,15,15});
vcAllocDelays=vcAllocDelays({15,15,15,15});
swAllocDelays=swAllocDelays({15,15,15,15});
stFinalDelays=stFinalDelays({15,15,15,15});

isAsync=isAsync({0,0,0,0});
isMetaUnstable=isMetaUnstable({0,0,0,0});

creditDelayStdDevs=creditDelayStdDevs({0,0,0,0});
routingDelayStdDevs=routingDelayStdDevs({0,0,0,0});
vcAllocDelayStdDevs=vcAllocDelayStdDevs({0,0,0,0});
swAllocDelayStdDevs=swAllocDelayStdDevs({0,0,0,0});
stFinalDelayStdDevs=stFinalDelayStdDevs({0,0,0,0});

  
swAllocThresholds=swAllocThresholds({1,1,1,1});
swAllocThresholdStdDevs=swAllocThresholdStdDevs({0,0,0,0});
swAllocMetaStableThresholds=swAllocMetaStableThresholds({1,1,1,1});
swAllocMetaStableMaxPenalities=swAllocMetaStableMaxPenalities({0,0,0,0});

END Configuration File: chiplet16/chip10
BEGIN Configuration File: chiplet16/chip11
//topology
topology = mesh;
k = 2;
n = 2;
type = chip;
start_point = 36;
cnum=11;
// Routing
routing_function = dor;

// Flow control
num_vcs     = 2;
vc_buf_size = 8;
wait_for_tail_credit = 1;
hold_switch_for_packet = 1;

// Router architecture
vc_allocator = islip;
sw_allocator = islip;
alloc_iters  = 1;

credit_delay   = 0;
routing_delay  = 1;
vc_alloc_delay = 1;
sw_alloc_delay = 1;
st_final_delay = 1;

input_speedup     = 1;
output_speedup    = 1;
internal_speedup  = 1.0;
vc_busy_when_full = 0;


//granulaity
latency_thres=20000.0;
deadlock_warn_timeout=20000;
traceStretch=3;

//gating
doGating=0;
sleepThreshold=40;
breakEvenThreshold=80;



//Syn Traffic
sim_type=latency;
traffic=uniform;
packet_size = 1;
sample_period=50000;
warmup_periods=1;
max_samples=12;
injection_rate=0.01;

creditDelays=creditDelays({0,0,0,0});
routingDelays=routingDelays({15,15,15,15});
vcAllocDelays=vcAllocDelays({15,15,15,15});
swAllocDelays=swAllocDelays({15,15,15,15});
stFinalDelays=stFinalDelays({15,15,15,15});

isAsync=isAsync({0,0,0,0});
isMetaUnstable=isMetaUnstable({0,0,0,0});

creditDelayStdDevs=creditDelayStdDevs({0,0,0,0});
routingDelayStdDevs=routingDelayStdDevs({0,0,0,0});
vcAllocDelayStdDevs=vcAllocDelayStdDevs({0,0,0,0});
swAllocDelayStdDevs=swAllocDelayStdDevs({0,0,0,0});
stFinalDelayStdDevs=stFinalDelayStdDevs({0,0,0,0});

  
swAllocThresholds=swAllocThresholds({1,1,1,1});
swAllocThresholdStdDevs=swAllocThresholdStdDevs({0,0,0,0});
swAllocMetaStableThresholds=swAllocMetaStableThresholds({1,1,1,1});
swAllocMetaStableMaxPenalities=swAllocMetaStableMaxPenalities({0,0,0,0});

END Configuration File: chiplet16/chip11
BEGIN Configuration File: chiplet16/chip12
//topology
topology = mesh;
k = 2;
n = 2;
type = chip;
start_point = 38;
cnum=12;
// Routing
routing_function = dor;

// Flow control
num_vcs     = 2;
vc_buf_size = 8;
wait_for_tail_credit = 1;
hold_switch_for_packet = 1;

// Router architecture
vc_allocator = islip;
sw_allocator = islip;
alloc_iters  = 1;

credit_delay   = 0;
routing_delay  = 1;
vc_alloc_delay = 1;
sw_alloc_delay = 1;
st_final_delay = 1;

input_speedup     = 1;
output_speedup    = 1;
internal_speedup  = 1.0;
vc_busy_when_full = 0;


//granulaity
latency_thres=20000.0;
deadlock_warn_timeout=20000;
traceStretch=3;

//gating
doGating=0;
sleepThreshold=40;
breakEvenThreshold=80;



//Syn Traffic
sim_type=latency;
traffic=uniform;
packet_size = 1;
sample_period=50000;
warmup_periods=1;
max_samples=12;
injection_rate=0.01;

creditDelays=creditDelays({0,0,0,0});
routingDelays=routingDelays({15,15,15,15});
vcAllocDelays=vcAllocDelays({15,15,15,15});
swAllocDelays=swAllocDelays({15,15,15,15});
stFinalDelays=stFinalDelays({15,15,15,15});

isAsync=isAsync({0,0,0,0});
isMetaUnstable=isMetaUnstable({0,0,0,0});

creditDelayStdDevs=creditDelayStdDevs({0,0,0,0});
routingDelayStdDevs=routingDelayStdDevs({0,0,0,0});
vcAllocDelayStdDevs=vcAllocDelayStdDevs({0,0,0,0});
swAllocDelayStdDevs=swAllocDelayStdDevs({0,0,0,0});
stFinalDelayStdDevs=stFinalDelayStdDevs({0,0,0,0});

  
swAllocThresholds=swAllocThresholds({1,1,1,1});
swAllocThresholdStdDevs=swAllocThresholdStdDevs({0,0,0,0});
swAllocMetaStableThresholds=swAllocMetaStableThresholds({1,1,1,1});
swAllocMetaStableMaxPenalities=swAllocMetaStableMaxPenalities({0,0,0,0});

END Configuration File: chiplet16/chip12
BEGIN Configuration File: chiplet16/chip13
//topology
topology = mesh;
k = 2;
n = 2;
type = chip;
start_point = 48;
cnum=13;
// Routing
routing_function = dor;

// Flow control
num_vcs     = 2;
vc_buf_size = 8;
wait_for_tail_credit = 1;
hold_switch_for_packet = 1;

// Router architecture
vc_allocator = islip;
sw_allocator = islip;
alloc_iters  = 1;

credit_delay   = 0;
routing_delay  = 1;
vc_alloc_delay = 1;
sw_alloc_delay = 1;
st_final_delay = 1;

input_speedup     = 1;
output_speedup    = 1;
internal_speedup  = 1.0;
vc_busy_when_full = 0;


//granulaity
latency_thres=20000.0;
deadlock_warn_timeout=20000;
traceStretch=3;

//gating
doGating=0;
sleepThreshold=40;
breakEvenThreshold=80;



//Syn Traffic
sim_type=latency;
traffic=uniform;
packet_size = 1;
sample_period=50000;
warmup_periods=1;
max_samples=12;
injection_rate=0.01;

creditDelays=creditDelays({0,0,0,0});
routingDelays=routingDelays({15,15,15,15});
vcAllocDelays=vcAllocDelays({15,15,15,15});
swAllocDelays=swAllocDelays({15,15,15,15});
stFinalDelays=stFinalDelays({15,15,15,15});

isAsync=isAsync({0,0,0,0});
isMetaUnstable=isMetaUnstable({0,0,0,0});

creditDelayStdDevs=creditDelayStdDevs({0,0,0,0});
routingDelayStdDevs=routingDelayStdDevs({0,0,0,0});
vcAllocDelayStdDevs=vcAllocDelayStdDevs({0,0,0,0});
swAllocDelayStdDevs=swAllocDelayStdDevs({0,0,0,0});
stFinalDelayStdDevs=stFinalDelayStdDevs({0,0,0,0});

  
swAllocThresholds=swAllocThresholds({1,1,1,1});
swAllocThresholdStdDevs=swAllocThresholdStdDevs({0,0,0,0});
swAllocMetaStableThresholds=swAllocMetaStableThresholds({1,1,1,1});
swAllocMetaStableMaxPenalities=swAllocMetaStableMaxPenalities({0,0,0,0});

END Configuration File: chiplet16/chip13
BEGIN Configuration File: chiplet16/chip14
//topology
topology = mesh;
k = 2;
n = 2;
type = chip;
start_point = 50;
cnum=14;
// Routing
routing_function = dor;

// Flow control
num_vcs     = 2;
vc_buf_size = 8;
wait_for_tail_credit = 1;
hold_switch_for_packet = 1;

// Router architecture
vc_allocator = islip;
sw_allocator = islip;
alloc_iters  = 1;

credit_delay   = 0;
routing_delay  = 1;
vc_alloc_delay = 1;
sw_alloc_delay = 1;
st_final_delay = 1;

input_speedup     = 1;
output_speedup    = 1;
internal_speedup  = 1.0;
vc_busy_when_full = 0;


//granulaity
latency_thres=20000.0;
deadlock_warn_timeout=20000;
traceStretch=3;

//gating
doGating=0;
sleepThreshold=40;
breakEvenThreshold=80;



//Syn Traffic
sim_type=latency;
traffic=uniform;
packet_size = 1;
sample_period=50000;
warmup_periods=1;
max_samples=12;
injection_rate=0.01;

creditDelays=creditDelays({0,0,0,0});
routingDelays=routingDelays({15,15,15,15});
vcAllocDelays=vcAllocDelays({15,15,15,15});
swAllocDelays=swAllocDelays({15,15,15,15});
stFinalDelays=stFinalDelays({15,15,15,15});

isAsync=isAsync({0,0,0,0});
isMetaUnstable=isMetaUnstable({0,0,0,0});

creditDelayStdDevs=creditDelayStdDevs({0,0,0,0});
routingDelayStdDevs=routingDelayStdDevs({0,0,0,0});
vcAllocDelayStdDevs=vcAllocDelayStdDevs({0,0,0,0});
swAllocDelayStdDevs=swAllocDelayStdDevs({0,0,0,0});
stFinalDelayStdDevs=stFinalDelayStdDevs({0,0,0,0});

  
swAllocThresholds=swAllocThresholds({1,1,1,1});
swAllocThresholdStdDevs=swAllocThresholdStdDevs({0,0,0,0});
swAllocMetaStableThresholds=swAllocMetaStableThresholds({1,1,1,1});
swAllocMetaStableMaxPenalities=swAllocMetaStableMaxPenalities({0,0,0,0});

END Configuration File: chiplet16/chip14
BEGIN Configuration File: chiplet16/chip15
//topology
topology = mesh;
k = 2;
n = 2;
type = chip;
start_point = 52;
cnum=15;
// Routing
routing_function = dor;

// Flow control
num_vcs     = 2;
vc_buf_size = 8;
wait_for_tail_credit = 1;
hold_switch_for_packet = 1;

// Router architecture
vc_allocator = islip;
sw_allocator = islip;
alloc_iters  = 1;

credit_delay   = 0;
routing_delay  = 1;
vc_alloc_delay = 1;
sw_alloc_delay = 1;
st_final_delay = 1;

input_speedup     = 1;
output_speedup    = 1;
internal_speedup  = 1.0;
vc_busy_when_full = 0;


//granulaity
latency_thres=20000.0;
deadlock_warn_timeout=20000;
traceStretch=3;

//gating
doGating=0;
sleepThreshold=40;
breakEvenThreshold=80;



//Syn Traffic
sim_type=latency;
traffic=uniform;
packet_size = 1;
sample_period=50000;
warmup_periods=1;
max_samples=12;
injection_rate=0.01;

creditDelays=creditDelays({0,0,0,0});
routingDelays=routingDelays({15,15,15,15});
vcAllocDelays=vcAllocDelays({15,15,15,15});
swAllocDelays=swAllocDelays({15,15,15,15});
stFinalDelays=stFinalDelays({15,15,15,15});

isAsync=isAsync({0,0,0,0});
isMetaUnstable=isMetaUnstable({0,0,0,0});

creditDelayStdDevs=creditDelayStdDevs({0,0,0,0});
routingDelayStdDevs=routingDelayStdDevs({0,0,0,0});
vcAllocDelayStdDevs=vcAllocDelayStdDevs({0,0,0,0});
swAllocDelayStdDevs=swAllocDelayStdDevs({0,0,0,0});
stFinalDelayStdDevs=stFinalDelayStdDevs({0,0,0,0});

  
swAllocThresholds=swAllocThresholds({1,1,1,1});
swAllocThresholdStdDevs=swAllocThresholdStdDevs({0,0,0,0});
swAllocMetaStableThresholds=swAllocMetaStableThresholds({1,1,1,1});
swAllocMetaStableMaxPenalities=swAllocMetaStableMaxPenalities({0,0,0,0});

END Configuration File: chiplet16/chip15
BEGIN Configuration File: chiplet16/chip16
//topology
topology = mesh;
k = 2;
n = 2;
type = chip;
start_point = 54;
cnum=16;
// Routing
routing_function = dor;

// Flow control
num_vcs     = 2;
vc_buf_size = 8;
wait_for_tail_credit = 1;
hold_switch_for_packet = 1;

// Router architecture
vc_allocator = islip;
sw_allocator = islip;
alloc_iters  = 1;

credit_delay   = 0;
routing_delay  = 1;
vc_alloc_delay = 1;
sw_alloc_delay = 1;
st_final_delay = 1;

input_speedup     = 1;
output_speedup    = 1;
internal_speedup  = 1.0;
vc_busy_when_full = 0;


//granulaity
latency_thres=20000.0;
deadlock_warn_timeout=20000;
traceStretch=3;

//gating
doGating=0;
sleepThreshold=40;
breakEvenThreshold=80;



//Syn Traffic
sim_type=latency;
traffic=uniform;
packet_size = 1;
sample_period=50000;
warmup_periods=1;
max_samples=12;
injection_rate=0.01;

creditDelays=creditDelays({0,0,0,0});
routingDelays=routingDelays({15,15,15,15});
vcAllocDelays=vcAllocDelays({15,15,15,15});
swAllocDelays=swAllocDelays({15,15,15,15});
stFinalDelays=stFinalDelays({15,15,15,15});

isAsync=isAsync({0,0,0,0});
isMetaUnstable=isMetaUnstable({0,0,0,0});

creditDelayStdDevs=creditDelayStdDevs({0,0,0,0});
routingDelayStdDevs=routingDelayStdDevs({0,0,0,0});
vcAllocDelayStdDevs=vcAllocDelayStdDevs({0,0,0,0});
swAllocDelayStdDevs=swAllocDelayStdDevs({0,0,0,0});
stFinalDelayStdDevs=stFinalDelayStdDevs({0,0,0,0});

  
swAllocThresholds=swAllocThresholds({1,1,1,1});
swAllocThresholdStdDevs=swAllocThresholdStdDevs({0,0,0,0});
swAllocMetaStableThresholds=swAllocMetaStableThresholds({1,1,1,1});
swAllocMetaStableMaxPenalities=swAllocMetaStableMaxPenalities({0,0,0,0});

END Configuration File: chiplet16/chip16
rid:0 add output _25chan1
rid:0 add input _25chan0
rid:1 add output _25chan3
rid:1 add input _25chan2
rid:2 add output _25chan9
rid:2 add input _25chan8
rid:3 add output _25chan11
rid:3 add input _25chan10
rid:4 add output _25chan17
rid:4 add input _25chan16
rid:5 add output _25chan19
rid:5 add input _25chan18
rid:6 add output _25chan25
rid:6 add input _25chan24
rid:7 add output _25chan27
rid:7 add input _25chan26
rid:8 add output _25chan5
rid:8 add input _25chan4
rid:9 add output _25chan7
rid:9 add input _25chan6
rid:10 add output _25chan13
rid:10 add input _25chan12
rid:11 add output _25chan15
rid:11 add input _25chan14
rid:12 add output _25chan21
rid:12 add input _25chan20
rid:13 add output _25chan23
rid:13 add input _25chan22
rid:14 add output _25chan29
rid:14 add input _25chan28
rid:15 add output _25chan31
rid:15 add input _25chan30
rid:16 add output _25chan37
rid:16 add input _25chan36
rid:17 add output _25chan39
rid:17 add input _25chan38
rid:18 add output _25chan45
rid:18 add input _25chan44
rid:19 add output _25chan47
rid:19 add input _25chan46
rid:20 add output _25chan49
rid:20 add input _25chan48
rid:21 add output _25chan51
rid:21 add input _25chan50
rid:22 add output _25chan57
rid:22 add input _25chan56
rid:23 add output _25chan59
rid:23 add input _25chan58
rid:24 add uselessoutput chan256
rid:25 add uselessoutput chan256
rid:26 add uselessoutput chan256
rid:27 add uselessoutput chan256
rid:28 add output _25chan53
rid:28 add input _25chan52
rid:29 add output _25chan55
rid:29 add input _25chan54
rid:30 add output _25chan61
rid:30 add input _25chan60
rid:31 add output _25chan63
rid:31 add input _25chan62
rid:32 add output _25chan65
rid:32 add input _25chan64
rid:33 add output _25chan67
rid:33 add input _25chan66
rid:34 add output _25chan73
rid:34 add input _25chan72
rid:35 add output _25chan75
rid:35 add input _25chan74
rid:36 add output _25chan81
rid:36 add input _25chan80
rid:37 add output _25chan83
rid:37 add input _25chan82
rid:38 add output _25chan89
rid:38 add input _25chan88
rid:39 add output _25chan91
rid:39 add input _25chan90
rid:40 add output _25chan69
rid:40 add input _25chan68
rid:41 add output _25chan71
rid:41 add input _25chan70
rid:42 add output _25chan77
rid:42 add input _25chan76
rid:43 add output _25chan79
rid:43 add input _25chan78
rid:44 add output _25chan85
rid:44 add input _25chan84
rid:45 add output _25chan87
rid:45 add input _25chan86
rid:46 add output _25chan93
rid:46 add input _25chan92
rid:47 add output _25chan95
rid:47 add input _25chan94
rid:48 add output _25chan97
rid:48 add input _25chan96
rid:49 add output _25chan99
rid:49 add input _25chan98
rid:50 add output _25chan105
rid:50 add input _25chan104
rid:51 add output _25chan107
rid:51 add input _25chan106
rid:52 add output _25chan113
rid:52 add input _25chan112
rid:53 add output _25chan115
rid:53 add input _25chan114
rid:54 add output _25chan121
rid:54 add input _25chan120
rid:55 add output _25chan123
rid:55 add input _25chan122
rid:56 add output _25chan101
rid:56 add input _25chan100
rid:57 add output _25chan103
rid:57 add input _25chan102
rid:58 add output _25chan109
rid:58 add input _25chan108
rid:59 add output _25chan111
rid:59 add input _25chan110
rid:60 add output _25chan117
rid:60 add input _25chan116
rid:61 add output _25chan119
rid:61 add input _25chan118
rid:62 add output _25chan125
rid:62 add input _25chan124
rid:63 add output _25chan127
rid:63 add input _25chan126
rid:0 add output _25chan0
rid:0 add input _25chan1
rid:1 add output _25chan2
rid:1 add input _25chan3
rid:2 add output _25chan4
rid:2 add input _25chan5
rid:3 add output _25chan6
rid:3 add input _25chan7
rid:0 add output _25chan8
rid:0 add input _25chan9
rid:1 add output _25chan10
rid:1 add input _25chan11
rid:2 add output _25chan12
rid:2 add input _25chan13
rid:3 add output _25chan14
rid:3 add input _25chan15
rid:0 add output _25chan16
rid:0 add input _25chan17
rid:1 add output _25chan18
rid:1 add input _25chan19
rid:2 add output _25chan20
rid:2 add input _25chan21
rid:3 add output _25chan22
rid:3 add input _25chan23
rid:0 add output _25chan24
rid:0 add input _25chan25
rid:1 add output _25chan26
rid:1 add input _25chan27
rid:2 add output _25chan28
rid:2 add input _25chan29
rid:3 add output _25chan30
rid:3 add input _25chan31
rid:0 add output _25chan32
rid:0 add input _25chan33
rid:1 add output _25chan34
rid:1 add input _25chan35
rid:2 add output _25chan36
rid:2 add input _25chan37
rid:3 add output _25chan38
rid:3 add input _25chan39
rid:0 add output _25chan40
rid:0 add input _25chan41
rid:1 add output _25chan42
rid:1 add input _25chan43
rid:2 add output _25chan44
rid:2 add input _25chan45
rid:3 add output _25chan46
rid:3 add input _25chan47
rid:0 add output _25chan48
rid:0 add input _25chan49
rid:1 add output _25chan50
rid:1 add input _25chan51
rid:2 add output _25chan52
rid:2 add input _25chan53
rid:3 add output _25chan54
rid:3 add input _25chan55
rid:0 add output _25chan56
rid:0 add input _25chan57
rid:1 add output _25chan58
rid:1 add input _25chan59
rid:2 add output _25chan60
rid:2 add input _25chan61
rid:3 add output _25chan62
rid:3 add input _25chan63
rid:0 add output _25chan64
rid:0 add input _25chan65
rid:1 add output _25chan66
rid:1 add input _25chan67
rid:2 add output _25chan68
rid:2 add input _25chan69
rid:3 add output _25chan70
rid:3 add input _25chan71
rid:0 add output _25chan72
rid:0 add input _25chan73
rid:1 add output _25chan74
rid:1 add input _25chan75
rid:2 add output _25chan76
rid:2 add input _25chan77
rid:3 add output _25chan78
rid:3 add input _25chan79
rid:0 add output _25chan80
rid:0 add input _25chan81
rid:1 add output _25chan82
rid:1 add input _25chan83
rid:2 add output _25chan84
rid:2 add input _25chan85
rid:3 add output _25chan86
rid:3 add input _25chan87
rid:0 add output _25chan88
rid:0 add input _25chan89
rid:1 add output _25chan90
rid:1 add input _25chan91
rid:2 add output _25chan92
rid:2 add input _25chan93
rid:3 add output _25chan94
rid:3 add input _25chan95
rid:0 add output _25chan96
rid:0 add input _25chan97
rid:1 add output _25chan98
rid:1 add input _25chan99
rid:2 add output _25chan100
rid:2 add input _25chan101
rid:3 add output _25chan102
rid:3 add input _25chan103
rid:0 add output _25chan104
rid:0 add input _25chan105
rid:1 add output _25chan106
rid:1 add input _25chan107
rid:2 add output _25chan108
rid:2 add input _25chan109
rid:3 add output _25chan110
rid:3 add input _25chan111
rid:0 add output _25chan112
rid:0 add input _25chan113
rid:1 add output _25chan114
rid:1 add input _25chan115
rid:2 add output _25chan116
rid:2 add input _25chan117
rid:3 add output _25chan118
rid:3 add input _25chan119
rid:0 add output _25chan120
rid:0 add input _25chan121
rid:1 add output _25chan122
rid:1 add input _25chan123
rid:2 add output _25chan124
rid:2 add input _25chan125
rid:3 add output _25chan126
rid:3 add input _25chan127

Tick: 0M
===== Time: 5000 =====
Class 0:
Minimum packet latency = 62
Average packet latency = 508.534
Maximum packet latency = 1130
Minimum network latency = 63
Average network latency = 509.428
Maximum network latency = 1131
Slowest packet = 279
Minimum flit latency = 63
Average flit latency = 509.428
Maximum flit latency = 1131
Slowest flit = 279
Minimum fragmentation = 0
Average fragmentation = 0
Maximum fragmentation = 0
Minimum injected packet rate = 0 (at node 0)
Average injected packet rate = 0.00095
Maximum injected packet rate = 0.0046 (at node 71)
Minimum accepted packet rate = 0 (at node 0)
Average accepted packet rate = 0.000865625
Maximum accepted packet rate = 0.0046 (at node 71)
Minimum injected flit rate = 0 (at node 0)
Average injected flit rate = 0.00095
Maximum injected flit rate = 0.0046 (at node 71)
Minimum accepted flit rate = 0 (at node 0)
Average accepted flit rate = 0.000865625
Maximum accepted flit rate = 0.0046 (at node 71)
Total number of injected packets = 608
Total number of injected flits = 608
Average injected packet length = 1
Total number of accepted packets = 554
Total number of accepted flits = 554
Average accepted packet length = 1
Total in-flight flits = 54 (0 measured)
class 0 latency change    = 1
class 0 throughput change = 1
Warmed up ...Time used is 5000 cycles
===== Time: 10000 =====
Class 0:
Minimum packet latency = 62
Average packet latency = 492.909
Maximum packet latency = 1033
Minimum network latency = 63
Average network latency = 493.782
Maximum network latency = 1034
Slowest packet = 862
Minimum flit latency = 63
Average flit latency = 499.013
Maximum flit latency = 1034
Slowest flit = 862
Minimum fragmentation = 0
Average fragmentation = 0
Maximum fragmentation = 0
Minimum injected packet rate = 0 (at node 0)
Average injected packet rate = 0.00100156
Maximum injected packet rate = 0.0048 (at node 67)
Minimum accepted packet rate = 0 (at node 0)
Average accepted packet rate = 0.000975
Maximum accepted packet rate = 0.0048 (at node 67)
Minimum injected flit rate = 0 (at node 0)
Average injected flit rate = 0.00100156
Maximum injected flit rate = 0.0048 (at node 67)
Minimum accepted flit rate = 0 (at node 0)
Average accepted flit rate = 0.000975
Maximum accepted flit rate = 0.0048 (at node 67)
Total number of injected packets = 641
Total number of injected flits = 641
Average injected packet length = 1
Total number of accepted packets = 624
Total number of accepted flits = 624
Average accepted packet length = 1
Total in-flight flits = 71 (71 measured)
class 0 latency change    = 0.0317006
class 0 throughput change = 0.112179
===== Time: 15000 =====
Class 0:
Minimum packet latency = 62
Average packet latency = 509.071
Maximum packet latency = 1111
Minimum network latency = 63
Average network latency = 509.905
Maximum network latency = 1112
Slowest packet = 1344
Minimum flit latency = 63
Average flit latency = 511.767
Maximum flit latency = 1112
Slowest flit = 1344
Minimum fragmentation = 0
Average fragmentation = 0
Maximum fragmentation = 0
Minimum injected packet rate = 0 (at node 0)
Average injected packet rate = 0.00100781
Maximum injected packet rate = 0.0049 (at node 71)
Minimum accepted packet rate = 0 (at node 0)
Average accepted packet rate = 0.00100391
Maximum accepted packet rate = 0.0051 (at node 70)
Minimum injected flit rate = 0 (at node 0)
Average injected flit rate = 0.00100781
Maximum injected flit rate = 0.0049 (at node 71)
Minimum accepted flit rate = 0 (at node 0)
Average accepted flit rate = 0.00100391
Maximum accepted flit rate = 0.0051 (at node 70)
Total number of injected packets = 1290
Total number of injected flits = 1290
Average injected packet length = 1
Total number of accepted packets = 1285
Total number of accepted flits = 1285
Average accepted packet length = 1
Total in-flight flits = 59 (59 measured)
class 0 latency change    = 0.0317494
class 0 throughput change = 0.0287938
===== Time: 20000 =====
Class 0:
Minimum packet latency = 62
Average packet latency = 508.874
Maximum packet latency = 1111
Minimum network latency = 63
Average network latency = 509.755
Maximum network latency = 1112
Slowest packet = 1344
Minimum flit latency = 63
Average flit latency = 511.016
Maximum flit latency = 1112
Slowest flit = 1344
Minimum fragmentation = 0
Average fragmentation = 0
Maximum fragmentation = 0
Minimum injected packet rate = 0 (at node 0)
Average injected packet rate = 0.00100312
Maximum injected packet rate = 0.00426667 (at node 67)
Minimum accepted packet rate = 0 (at node 0)
Average accepted packet rate = 0.000992188
Maximum accepted packet rate = 0.00493333 (at node 70)
Minimum injected flit rate = 0 (at node 0)
Average injected flit rate = 0.00100312
Maximum injected flit rate = 0.00426667 (at node 67)
Minimum accepted flit rate = 0 (at node 0)
Average accepted flit rate = 0.000992188
Maximum accepted flit rate = 0.00493333 (at node 70)
Total number of injected packets = 1926
Total number of injected flits = 1926
Average injected packet length = 1
Total number of accepted packets = 1905
Total number of accepted flits = 1905
Average accepted packet length = 1
Total in-flight flits = 75 (75 measured)
class 0 latency change    = 0.000387845
class 0 throughput change = 0.011811
===== Time: 25000 =====
Class 0:
Minimum packet latency = 62
Average packet latency = 509.808
Maximum packet latency = 1111
Minimum network latency = 63
Average network latency = 510.675
Maximum network latency = 1112
Slowest packet = 1344
Minimum flit latency = 63
Average flit latency = 511.592
Maximum flit latency = 1112
Slowest flit = 1344
Minimum fragmentation = 0
Average fragmentation = 0
Maximum fragmentation = 0
Minimum injected packet rate = 0 (at node 0)
Average injected packet rate = 0.0010043
Maximum injected packet rate = 0.00405 (at node 67)
Minimum accepted packet rate = 0 (at node 0)
Average accepted packet rate = 0.00100156
Maximum accepted packet rate = 0.0046 (at node 70)
Minimum injected flit rate = 0 (at node 0)
Average injected flit rate = 0.0010043
Maximum injected flit rate = 0.00405 (at node 67)
Minimum accepted flit rate = 0 (at node 0)
Average accepted flit rate = 0.00100156
Maximum accepted flit rate = 0.0046 (at node 70)
Total number of injected packets = 2571
Total number of injected flits = 2571
Average injected packet length = 1
Total number of accepted packets = 2564
Total number of accepted flits = 2564
Average accepted packet length = 1
Total in-flight flits = 61 (61 measured)
class 0 latency change    = 0.00183176
class 0 throughput change = 0.00936037
===== Time: 30000 =====
Class 0:
Minimum packet latency = 62
Average packet latency = 509.508
Maximum packet latency = 1111
Minimum network latency = 63
Average network latency = 510.395
Maximum network latency = 1112
Slowest packet = 1344
Minimum flit latency = 63
Average flit latency = 511.13
Maximum flit latency = 1112
Slowest flit = 1344
Minimum fragmentation = 0
Average fragmentation = 0
Maximum fragmentation = 0
Minimum injected packet rate = 0 (at node 0)
Average injected packet rate = 0.00100875
Maximum injected packet rate = 0.00424 (at node 66)
Minimum accepted packet rate = 0 (at node 0)
Average accepted packet rate = 0.00100531
Maximum accepted packet rate = 0.00416 (at node 70)
Minimum injected flit rate = 0 (at node 0)
Average injected flit rate = 0.00100875
Maximum injected flit rate = 0.00424 (at node 66)
Minimum accepted flit rate = 0 (at node 0)
Average accepted flit rate = 0.00100531
Maximum accepted flit rate = 0.00416 (at node 70)
Total number of injected packets = 3228
Total number of injected flits = 3228
Average injected packet length = 1
Total number of accepted packets = 3217
Total number of accepted flits = 3217
Average accepted packet length = 1
Total in-flight flits = 65 (65 measured)
class 0 latency change    = 0.000588619
class 0 throughput change = 0.00373018
===== Time: 35000 =====
Class 0:
Minimum packet latency = 62
Average packet latency = 511.644
Maximum packet latency = 1193
Minimum network latency = 63
Average network latency = 512.51
Maximum network latency = 1194
Slowest packet = 4312
Minimum flit latency = 63
Average flit latency = 513.091
Maximum flit latency = 1194
Slowest flit = 4312
Minimum fragmentation = 0
Average fragmentation = 0
Maximum fragmentation = 0
Minimum injected packet rate = 0 (at node 0)
Average injected packet rate = 0.00100911
Maximum injected packet rate = 0.00436667 (at node 66)
Minimum accepted packet rate = 0 (at node 0)
Average accepted packet rate = 0.00100911
Maximum accepted packet rate = 0.00406667 (at node 66)
Minimum injected flit rate = 0 (at node 0)
Average injected flit rate = 0.00100911
Maximum injected flit rate = 0.00436667 (at node 66)
Minimum accepted flit rate = 0 (at node 0)
Average accepted flit rate = 0.00100911
Maximum accepted flit rate = 0.00406667 (at node 66)
Total number of injected packets = 3875
Total number of injected flits = 3875
Average injected packet length = 1
Total number of accepted packets = 3875
Total number of accepted flits = 3875
Average accepted packet length = 1
Total in-flight flits = 54 (54 measured)
class 0 latency change    = 0.00417531
class 0 throughput change = 0.00376774
===== Time: 40000 =====
Class 0:
Minimum packet latency = 62
Average packet latency = 513.232
Maximum packet latency = 1193
Minimum network latency = 63
Average network latency = 514.108
Maximum network latency = 1194
Slowest packet = 4312
Minimum flit latency = 63
Average flit latency = 514.582
Maximum flit latency = 1194
Slowest flit = 4312
Minimum fragmentation = 0
Average fragmentation = 0
Maximum fragmentation = 0
Minimum injected packet rate = 0 (at node 0)
Average injected packet rate = 0.00102054
Maximum injected packet rate = 0.00425714 (at node 66)
Minimum accepted packet rate = 0 (at node 0)
Average accepted packet rate = 0.00101897
Maximum accepted packet rate = 0.00408571 (at node 66)
Minimum injected flit rate = 0 (at node 0)
Average injected flit rate = 0.00102054
Maximum injected flit rate = 0.00425714 (at node 66)
Minimum accepted flit rate = 0 (at node 0)
Average accepted flit rate = 0.00101897
Maximum accepted flit rate = 0.00408571 (at node 66)
Total number of injected packets = 4572
Total number of injected flits = 4572
Average injected packet length = 1
Total number of accepted packets = 4565
Total number of accepted flits = 4565
Average accepted packet length = 1
Total in-flight flits = 61 (61 measured)
class 0 latency change    = 0.00309409
class 0 throughput change = 0.00967506
===== Time: 45000 =====
Class 0:
Minimum packet latency = 62
Average packet latency = 513.573
Maximum packet latency = 1193
Minimum network latency = 63
Average network latency = 514.453
Maximum network latency = 1194
Slowest packet = 4312
Minimum flit latency = 63
Average flit latency = 514.869
Maximum flit latency = 1194
Slowest flit = 4312
Minimum fragmentation = 0
Average fragmentation = 0
Maximum fragmentation = 0
Minimum injected packet rate = 0 (at node 0)
Average injected packet rate = 0.00100918
Maximum injected packet rate = 0.00425 (at node 66)
Minimum accepted packet rate = 0 (at node 0)
Average accepted packet rate = 0.00100918
Maximum accepted packet rate = 0.00405 (at node 66)
Minimum injected flit rate = 0 (at node 0)
Average injected flit rate = 0.00100918
Maximum injected flit rate = 0.00425 (at node 66)
Minimum accepted flit rate = 0 (at node 0)
Average accepted flit rate = 0.00100918
Maximum accepted flit rate = 0.00405 (at node 66)
Total number of injected packets = 5167
Total number of injected flits = 5167
Average injected packet length = 1
Total number of accepted packets = 5167
Total number of accepted flits = 5167
Average accepted packet length = 1
Total in-flight flits = 54 (54 measured)
class 0 latency change    = 0.000663446
class 0 throughput change = 0.00970444
===== Time: 50000 =====
Class 0:
Minimum packet latency = 62
Average packet latency = 513.222
Maximum packet latency = 1193
Minimum network latency = 63
Average network latency = 514.107
Maximum network latency = 1194
Slowest packet = 4312
Minimum flit latency = 63
Average flit latency = 514.478
Maximum flit latency = 1194
Slowest flit = 4312
Minimum fragmentation = 0
Average fragmentation = 0
Maximum fragmentation = 0
Minimum injected packet rate = 0 (at node 0)
Average injected packet rate = 0.00101458
Maximum injected packet rate = 0.00428889 (at node 66)
Minimum accepted packet rate = 0 (at node 0)
Average accepted packet rate = 0.00101493
Maximum accepted packet rate = 0.00424444 (at node 66)
Minimum injected flit rate = 0 (at node 0)
Average injected flit rate = 0.00101458
Maximum injected flit rate = 0.00428889 (at node 66)
Minimum accepted flit rate = 0 (at node 0)
Average accepted flit rate = 0.00101493
Maximum accepted flit rate = 0.00424444 (at node 66)
Total number of injected packets = 5844
Total number of injected flits = 5844
Average injected packet length = 1
Total number of accepted packets = 5846
Total number of accepted flits = 5846
Average accepted packet length = 1
Total in-flight flits = 52 (52 measured)
class 0 latency change    = 0.000684288
class 0 throughput change = 0.00566627
===== Time: 55000 =====
Class 0:
Minimum packet latency = 62
Average packet latency = 513.977
Maximum packet latency = 1193
Minimum network latency = 63
Average network latency = 514.869
Maximum network latency = 1194
Slowest packet = 4312
Minimum flit latency = 63
Average flit latency = 515.2
Maximum flit latency = 1194
Slowest flit = 4312
Minimum fragmentation = 0
Average fragmentation = 0
Maximum fragmentation = 0
Minimum injected packet rate = 0 (at node 0)
Average injected packet rate = 0.00100734
Maximum injected packet rate = 0.00434 (at node 66)
Minimum accepted packet rate = 0 (at node 0)
Average accepted packet rate = 0.00100406
Maximum accepted packet rate = 0.00426 (at node 66)
Minimum injected flit rate = 0 (at node 0)
Average injected flit rate = 0.00100734
Maximum injected flit rate = 0.00434 (at node 66)
Minimum accepted flit rate = 0 (at node 0)
Average accepted flit rate = 0.00100406
Maximum accepted flit rate = 0.00426 (at node 66)
Total number of injected packets = 6447
Total number of injected flits = 6447
Average injected packet length = 1
Total number of accepted packets = 6426
Total number of accepted flits = 6426
Average accepted packet length = 1
Total in-flight flits = 75 (75 measured)
class 0 latency change    = 0.00146877
class 0 throughput change = 0.0108241
Draining remaining packets ...
Time taken is 55822 cycles
====== Traffic class 0 ======

Total number of flits generated = 7055, changed lanes = 0
Overall minimum packet latency = 62 (1 samples)
Overall average packet latency = 514.793 (1 samples)
Overall maximum packet latency = 1193 (1 samples)
Overall minimum network latency = 63 (1 samples)
Overall average network latency = 515.686 (1 samples)
Overall maximum network latency = 1194 (1 samples)
Overall minimum flit latency = 63 (1 samples)
Overall average flit latency = 516.006 (1 samples)
Overall maximum flit latency = 1194 (1 samples)
Overall minimum fragmentation = 0 (1 samples)
Overall average fragmentation = 0 (1 samples)
Overall maximum fragmentation = 0 (1 samples)
Overall minimum injected packet rate = 0 (1 samples)
Overall average injected packet rate = 0.00100734 (1 samples)
Overall maximum injected packet rate = 0.00434 (1 samples)
Overall minimum accepted packet rate = 0 (1 samples)
Overall average accepted packet rate = 0.00100406 (1 samples)
Overall maximum accepted packet rate = 0.00426 (1 samples)
Overall minimum injected flit rate = 0 (1 samples)
Overall average injected flit rate = 0.00100734 (1 samples)
Overall maximum injected flit rate = 0.00434 (1 samples)
Overall minimum accepted flit rate = 0 (1 samples)
Overall average accepted flit rate = 0.00100406 (1 samples)
Overall maximum accepted flit rate = 0.00426 (1 samples)
Overall average injected packet size = 1 (1 samples)
Overall average accepted packet size = 1 (1 samples)
Overall average hops = 8.18132 (1 samples)
Overall throughput of the network (flits/cycle) = 0.1411
Overall throughput of the network (packets/cycle) = 0.1411
CSV Result Header , avgFLat,avgFInjRate
CSV Result ,516.006,0.00100734

Power Report Header, Frequency, Time, StaticIQ, DynamicIQ, StaticVC, DynamicVC, StaticSA, DynamicSA, StaticST, DynamicST, StaticLink, DynamicLink, NoFlits, ePerFlit
Power Report,3.9e+08,55822,0.131875,0.0039416,0.00749762,0.000116692,0.00224928,0.000103219,0.477597,0.0013033,0.0905466,0.00269934,7055,1.45679e-08

*****************************************
Total run time 14.4546
generate:0x7ffdd8bbbdc0
delete:0x7ffdd8bbbdc0
L = 2 K = 8.1 M = 2 N = 1
-----------------------------------------
- OCN Power Summary
- Completion Time:         55822
- Flit Widths:            64
- Channel Wire Power:      0.363643
- Channel Clock Power:     1.46183
- Channel Retiming Power:  0.00451806
- Channel Leakage Power:   0.551082
- Input Read Power:        0.0114126
- Input Write Power:       0.0114126
- Input Leakage Power:     0.113246
- Switch Power:            0.0247094
- Switch Control Power:    0.0128133
- Switch Leakage Power:    0.771052
- Output DFF Power:        0.00265992
- Output Clk Power:        0.727126
- Output Control Power:    0.00137274
- Total Power:             4.05687
-----------------------------------------

-----------------------------------------
- OCN Area Summary
- Channel Area:  0.109536
- Switch  Area:  0.241592
- Input  Area:   0.120796
- Output  Area:  0.0201327
- Total Area:    0.492056
-----------------------------------------
CSV Power Result Header , Completion Time, Channel Wire, Channel Clock, Channel Retiming, Channel Leakage, Input Read, Input Write, Input Leakage, Switch Power, Switch Control, Switch Leakage, Output DFF, Output Clk, Output Control
CSV Power Result , 55822, 0.363643, 1.46183, 0.00451806, 0.551082, 0.0114126, 0.0114126, 0.113246, 0.0247094, 0.0128133, 0.771052, 0.00265992, 0.727126, 0.00137274
delete:0x7ffdd8bbbdc0
delete:0x7ffdd8bbbdc0
delete:0x7ffdd8bbbdc0
delete:0x7ffdd8bbbdc0
delete:0x7ffdd8bbbdc0
delete:0x7ffdd8bbbdc0
delete:0x7ffdd8bbbdc0
delete:0x7ffdd8bbbdc0
delete:0x7ffdd8bbbdc0
delete:0x7ffdd8bbbdc0
delete:0x7ffdd8bbbdc0
delete:0x7ffdd8bbbdc0
delete:0x7ffdd8bbbdc0
delete:0x7ffdd8bbbdc0
delete:0x7ffdd8bbbdc0
delete:0x7ffdd8bbbdc0
delete:0x7ffdd8bbbdc0
delete:0x7ffdd8bbbdc0
