generate:0x7ffdf76f26a0
generate:0x7ffdf76f2758
generate:0x7ffdf76f2810
generate:0x7ffdf76f28c8
generate:0x7ffdf76f2980
generate:0x7ffdf76f2a38
generate:0x7ffdf76f2af0
generate:0x7ffdf76f2ba8
generate:0x7ffdf76f2c60
generate:0x7ffdf76f2d18
generate:0x7ffdf76f2dd0
generate:0x7ffdf76f2e88
generate:0x7ffdf76f2f40
generate:0x7ffdf76f2ff8
generate:0x7ffdf76f30b0
generate:0x7ffdf76f3168
generate:0x7ffdf76f3220
generate:0x7ffdf76f3390
BEGIN Configuration File: interposer2
//topology
topology = mesh;
k = 8;
n = 2;
type = interposer;
// Routing
routing_function = dor;

// Flow control
num_vcs     = 2;
vc_buf_size = 8;
wait_for_tail_credit = 1;
hold_switch_for_packet = 1;

// Router architecture
vc_allocator = islip;
sw_allocator = islip;
alloc_iters  = 1;

credit_delay   = 0;
routing_delay  = 1;
vc_alloc_delay = 1;
sw_alloc_delay = 1;
st_final_delay = 1;

input_speedup     = 1;
output_speedup    = 1;
internal_speedup  = 1.0;
vc_busy_when_full = 0;


//granulaity
latency_thres=20000.0;
deadlock_warn_timeout=20000;
traceStretch=3;

//gating
doGating=0;
sleepThreshold=40;
breakEvenThreshold=80;



//Syn Traffic
//sim_type=latency;
sim_type=throughput;
traffic=uniform;
packet_size = 1;
sample_period=5000;
warmup_periods=1;
max_samples=11;
injection_rate=0.006;

creditDelays=creditDelays({0,0,0,0,0,0,0,0,0,0,0,0,0,0,0,0,0,0,0,0,0,0,0,0,0,0,0,0,0,0,0,0,0,0,0,0,0,0,0,0,0,0,0,0,0,0,0,0,0,0,0,0,0,0,0,0,0,0,0,0,0,0,0,0}});
routingDelays=routingDelays({15,15,15,15,15,15,15,15,15,15,15,15,15,15,15,15,15,15,15,15,15,15,15,15,15,15,15,15,15,15,15,15,15,15,15,15,15,15,15,15,15,15,15,15,15,15,15,15,15,15,15,15,15,15,15,15,15,15,15,15,15,15,15,15});
vcAllocDelays=vcAllocDelays({15,15,15,15,15,15,15,15,15,15,15,15,15,15,15,15,15,15,15,15,15,15,15,15,15,15,15,15,15,15,15,15,15,15,15,15,15,15,15,15,15,15,15,15,15,15,15,15,15,15,15,15,15,15,15,15,15,15,15,15,15,15,15,15});
swAllocDelays=swAllocDelays({15,15,15,15,15,15,15,15,15,15,15,15,15,15,15,15,15,15,15,15,15,15,15,15,15,15,15,15,15,15,15,15,15,15,15,15,15,15,15,15,15,15,15,15,15,15,15,15,15,15,15,15,15,15,15,15,15,15,15,15,15,15,15,15});
stFinalDelays=stFinalDelays({15,15,15,15,15,15,15,15,15,15,15,15,15,15,15,15,15,15,15,15,15,15,15,15,15,15,15,15,15,15,15,15,15,15,15,15,15,15,15,15,15,15,15,15,15,15,15,15,15,15,15,15,15,15,15,15,15,15,15,15,15,15,15,15});

isAsync=isAsync({0,0,0,0,0,0,0,0,0,0,0,0,0,0,0,0,0,0,0,0,0,0,0,0,0,0,0,0,0,0,0,0,0,0,0,0,0,0,0,0,0,0,0,0,0,0,0,0,0,0,0,0,0,0,0,0,0,0,0,0,0,0,0,0});
isMetaUnstable=isMetaUnstable({0,0,0,0,0,0,0,0,0,0,0,0,0,0,0,0,0,0,0,0,0,0,0,0,0,0,0,0,0,0,0,0,0,0,0,0,0,0,0,0,0,0,0,0,0,0,0,0,0,0,0,0,0,0,0,0,0,0,0,0,0,0,0,0});

creditDelayStdDevs=creditDelayStdDevs({0,0,0,0,0,0,0,0,0,0,0,0,0,0,0,0,0,0,0,0,0,0,0,0,0,0,0,0,0,0,0,0,0,0,0,0,0,0,0,0,0,0,0,0,0,0,0,0,0,0,0,0,0,0,0,0,0,0,0,0,0,0,0,0});
routingDelayStdDevs=routingDelayStdDevs({0,0,0,0,0,0,0,0,0,0,0,0,0,0,0,0,0,0,0,0,0,0,0,0,0,0,0,0,0,0,0,0,0,0,0,0,0,0,0,0,0,0,0,0,0,0,0,0,0,0,0,0,0,0,0,0,0,0,0,0,0,0,0,0});
vcAllocDelayStdDevs=vcAllocDelayStdDevs({0,0,0,0,0,0,0,0,0,0,0,0,0,0,0,0,0,0,0,0,0,0,0,0,0,0,0,0,0,0,0,0,0,0,0,0,0,0,0,0,0,0,0,0,0,0,0,0,0,0,0,0,0,0,0,0,0,0,0,0,0,0,0,0});
swAllocDelayStdDevs=swAllocDelayStdDevs({0,0,0,0,0,0,0,0,0,0,0,0,0,0,0,0,0,0,0,0,0,0,0,0,0,0,0,0,0,0,0,0,0,0,0,0,0,0,0,0,0,0,0,0,0,0,0,0,0,0,0,0,0,0,0,0,0,0,0,0,0,0,0,0});
stFinalDelayStdDevs=stFinalDelayStdDevs({0,0,0,0,0,0,0,0,0,0,0,0,0,0,0,0,0,0,0,0,0,0,0,0,0,0,0,0,0,0,0,0,0,0,0,0,0,0,0,0,0,0,0,0,0,0,0,0,0,0,0,0,0,0,0,0,0,0,0,0,0,0,0,0});

  
swAllocThresholds=swAllocThresholds({1,1,1,1,1,1,1,1,1,1,1,1,1,1,1,1,1,1,1,1,1,1,1,1,1,1,1,1,1,1,1,1,1,1,1,1,1,1,1,1,1,1,1,1,1,1,1,1,1,1,1,1,1,1,1,1,1,1,1,1,1,1,1,1});
swAllocThresholdStdDevs=swAllocThresholdStdDevs({0,0,0,0,0,0,0,0,0,0,0,0,0,0,0,0,0,0,0,0,0,0,0,0,0,0,0,0,0,0,0,0,0,0,0,0,0,0,0,0,0,0,0,0,0,0,0,0,0,0,0,0,0,0,0,0,0,0,0,0,0,0,0,0});
swAllocMetaStableThresholds=swAllocMetaStableThresholds({1,1,1,1,1,1,1,1,1,1,1,1,1,1,1,1,1,1,1,1,1,1,1,1,1,1,1,1,1,1,1,1,1,1,1,1,1,1,1,1,1,1,1,1,1,1,1,1,1,1,1,1,1,1,1,1,1,1,1,1,1,1,1,1});
swAllocMetaStableMaxPenalities=swAllocMetaStableMaxPenalities({0,0,0,0,0,0,0,0,0,0,0,0,0,0,0,0,0,0,0,0,0,0,0,0,0,0,0,0,0,0,0,0,0,0,0,0,0,0,0,0,0,0,0,0,0,0,0,0,0,0,0,0,0,0,0,0,0,0,0,0,0,0,0,0});

END Configuration File: interposer2
BEGIN Configuration File: chiplet16/chip1
//topology
topology = mesh;
k = 2;
n = 2;
type = chip;
start_point = 0;
cnum=1;
// Routing
routing_function = dor;

// Flow control
num_vcs     = 2;
vc_buf_size = 8;
wait_for_tail_credit = 1;
hold_switch_for_packet = 1;

// Router architecture
vc_allocator = islip;
sw_allocator = islip;
alloc_iters  = 1;

credit_delay   = 0;
routing_delay  = 1;
vc_alloc_delay = 1;
sw_alloc_delay = 1;
st_final_delay = 1;

input_speedup     = 1;
output_speedup    = 1;
internal_speedup  = 1.0;
vc_busy_when_full = 0;


//granulaity
latency_thres=20000.0;
deadlock_warn_timeout=20000;
traceStretch=3;

//gating
doGating=0;
sleepThreshold=40;
breakEvenThreshold=80;



//Syn Traffic
sim_type=latency;
traffic=uniform;
packet_size = 1;
sample_period=50000;
warmup_periods=1;
max_samples=12;
injection_rate=0.01;

creditDelays=creditDelays({0,0,0,0});
routingDelays=routingDelays({15,15,15,15});
vcAllocDelays=vcAllocDelays({15,15,15,15});
swAllocDelays=swAllocDelays({15,15,15,15});
stFinalDelays=stFinalDelays({15,15,15,15});

isAsync=isAsync({0,0,0,0});
isMetaUnstable=isMetaUnstable({0,0,0,0});

creditDelayStdDevs=creditDelayStdDevs({0,0,0,0});
routingDelayStdDevs=routingDelayStdDevs({0,0,0,0});
vcAllocDelayStdDevs=vcAllocDelayStdDevs({0,0,0,0});
swAllocDelayStdDevs=swAllocDelayStdDevs({0,0,0,0});
stFinalDelayStdDevs=stFinalDelayStdDevs({0,0,0,0});

  
swAllocThresholds=swAllocThresholds({1,1,1,1});
swAllocThresholdStdDevs=swAllocThresholdStdDevs({0,0,0,0});
swAllocMetaStableThresholds=swAllocMetaStableThresholds({1,1,1,1});
swAllocMetaStableMaxPenalities=swAllocMetaStableMaxPenalities({0,0,0,0});

END Configuration File: chiplet16/chip1
BEGIN Configuration File: chiplet16/chip2
//topology
topology = mesh;
k = 2;
n = 2;
type = chip;
start_point = 2;
cnum=2;
// Routing
routing_function = dor;

// Flow control
num_vcs     = 2;
vc_buf_size = 8;
wait_for_tail_credit = 1;
hold_switch_for_packet = 1;

// Router architecture
vc_allocator = islip;
sw_allocator = islip;
alloc_iters  = 1;

credit_delay   = 0;
routing_delay  = 1;
vc_alloc_delay = 1;
sw_alloc_delay = 1;
st_final_delay = 1;

input_speedup     = 1;
output_speedup    = 1;
internal_speedup  = 1.0;
vc_busy_when_full = 0;


//granulaity
latency_thres=20000.0;
deadlock_warn_timeout=20000;
traceStretch=3;

//gating
doGating=0;
sleepThreshold=40;
breakEvenThreshold=80;



//Syn Traffic
sim_type=latency;
traffic=uniform;
packet_size = 1;
sample_period=50000;
warmup_periods=1;
max_samples=12;
injection_rate=0.01;

creditDelays=creditDelays({0,0,0,0});
routingDelays=routingDelays({15,15,15,15});
vcAllocDelays=vcAllocDelays({15,15,15,15});
swAllocDelays=swAllocDelays({15,15,15,15});
stFinalDelays=stFinalDelays({15,15,15,15});

isAsync=isAsync({0,0,0,0});
isMetaUnstable=isMetaUnstable({0,0,0,0});

creditDelayStdDevs=creditDelayStdDevs({0,0,0,0});
routingDelayStdDevs=routingDelayStdDevs({0,0,0,0});
vcAllocDelayStdDevs=vcAllocDelayStdDevs({0,0,0,0});
swAllocDelayStdDevs=swAllocDelayStdDevs({0,0,0,0});
stFinalDelayStdDevs=stFinalDelayStdDevs({0,0,0,0});

  
swAllocThresholds=swAllocThresholds({1,1,1,1});
swAllocThresholdStdDevs=swAllocThresholdStdDevs({0,0,0,0});
swAllocMetaStableThresholds=swAllocMetaStableThresholds({1,1,1,1});
swAllocMetaStableMaxPenalities=swAllocMetaStableMaxPenalities({0,0,0,0});

END Configuration File: chiplet16/chip2
BEGIN Configuration File: chiplet16/chip3
//topology
topology = mesh;
k = 2;
n = 2;
type = chip;
start_point = 4;
cnum=3;
// Routing
routing_function = dor;

// Flow control
num_vcs     = 2;
vc_buf_size = 8;
wait_for_tail_credit = 1;
hold_switch_for_packet = 1;

// Router architecture
vc_allocator = islip;
sw_allocator = islip;
alloc_iters  = 1;

credit_delay   = 0;
routing_delay  = 1;
vc_alloc_delay = 1;
sw_alloc_delay = 1;
st_final_delay = 1;

input_speedup     = 1;
output_speedup    = 1;
internal_speedup  = 1.0;
vc_busy_when_full = 0;


//granulaity
latency_thres=20000.0;
deadlock_warn_timeout=20000;
traceStretch=3;

//gating
doGating=0;
sleepThreshold=40;
breakEvenThreshold=80;



//Syn Traffic
sim_type=latency;
traffic=uniform;
packet_size = 1;
sample_period=50000;
warmup_periods=1;
max_samples=12;
injection_rate=0.01;

creditDelays=creditDelays({0,0,0,0});
routingDelays=routingDelays({15,15,15,15});
vcAllocDelays=vcAllocDelays({15,15,15,15});
swAllocDelays=swAllocDelays({15,15,15,15});
stFinalDelays=stFinalDelays({15,15,15,15});

isAsync=isAsync({0,0,0,0});
isMetaUnstable=isMetaUnstable({0,0,0,0});

creditDelayStdDevs=creditDelayStdDevs({0,0,0,0});
routingDelayStdDevs=routingDelayStdDevs({0,0,0,0});
vcAllocDelayStdDevs=vcAllocDelayStdDevs({0,0,0,0});
swAllocDelayStdDevs=swAllocDelayStdDevs({0,0,0,0});
stFinalDelayStdDevs=stFinalDelayStdDevs({0,0,0,0});

  
swAllocThresholds=swAllocThresholds({1,1,1,1});
swAllocThresholdStdDevs=swAllocThresholdStdDevs({0,0,0,0});
swAllocMetaStableThresholds=swAllocMetaStableThresholds({1,1,1,1});
swAllocMetaStableMaxPenalities=swAllocMetaStableMaxPenalities({0,0,0,0});

END Configuration File: chiplet16/chip3
BEGIN Configuration File: chiplet16/chip4
//topology
topology = mesh;
k = 2;
n = 2;
type = chip;
start_point = 6;
cnum=4;
// Routing
routing_function = dor;

// Flow control
num_vcs     = 2;
vc_buf_size = 8;
wait_for_tail_credit = 1;
hold_switch_for_packet = 1;

// Router architecture
vc_allocator = islip;
sw_allocator = islip;
alloc_iters  = 1;

credit_delay   = 0;
routing_delay  = 1;
vc_alloc_delay = 1;
sw_alloc_delay = 1;
st_final_delay = 1;

input_speedup     = 1;
output_speedup    = 1;
internal_speedup  = 1.0;
vc_busy_when_full = 0;


//granulaity
latency_thres=20000.0;
deadlock_warn_timeout=20000;
traceStretch=3;

//gating
doGating=0;
sleepThreshold=40;
breakEvenThreshold=80;



//Syn Traffic
sim_type=latency;
traffic=uniform;
packet_size = 1;
sample_period=50000;
warmup_periods=1;
max_samples=12;
injection_rate=0.01;

creditDelays=creditDelays({0,0,0,0});
routingDelays=routingDelays({15,15,15,15});
vcAllocDelays=vcAllocDelays({15,15,15,15});
swAllocDelays=swAllocDelays({15,15,15,15});
stFinalDelays=stFinalDelays({15,15,15,15});

isAsync=isAsync({0,0,0,0});
isMetaUnstable=isMetaUnstable({0,0,0,0});

creditDelayStdDevs=creditDelayStdDevs({0,0,0,0});
routingDelayStdDevs=routingDelayStdDevs({0,0,0,0});
vcAllocDelayStdDevs=vcAllocDelayStdDevs({0,0,0,0});
swAllocDelayStdDevs=swAllocDelayStdDevs({0,0,0,0});
stFinalDelayStdDevs=stFinalDelayStdDevs({0,0,0,0});

  
swAllocThresholds=swAllocThresholds({1,1,1,1});
swAllocThresholdStdDevs=swAllocThresholdStdDevs({0,0,0,0});
swAllocMetaStableThresholds=swAllocMetaStableThresholds({1,1,1,1});
swAllocMetaStableMaxPenalities=swAllocMetaStableMaxPenalities({0,0,0,0});

END Configuration File: chiplet16/chip4
BEGIN Configuration File: chiplet16/chip5
//topology
topology = mesh;
k = 2;
n = 2;
type = chip;
start_point = 8;
cnum=5;
//16
// Routing
routing_function = dor;

// Flow control
num_vcs     = 2;
vc_buf_size = 8;
wait_for_tail_credit = 1;
hold_switch_for_packet = 1;

// Router architecture
vc_allocator = islip;
sw_allocator = islip;
alloc_iters  = 1;

credit_delay   = 1;
routing_delay  = 1;
vc_alloc_delay = 1;
sw_alloc_delay = 1;
st_final_delay = 1;

input_speedup     = 1;
output_speedup    = 1;
internal_speedup  = 1.0;
vc_busy_when_full = 0;


//granulaity
latency_thres=20000.0;
deadlock_warn_timeout=20000;
traceStretch=3;

//gating
doGating=0;
sleepThreshold=40;
breakEvenThreshold=80;



//Syn Traffic
sim_type=latency;
traffic=uniform;
packet_size = 1;
sample_period=50000;
warmup_periods=1;
max_samples=12;
injection_rate=0.01;

creditDelays=creditDelays({0,0,0,0});
routingDelays=routingDelays({15,15,15,15});
vcAllocDelays=vcAllocDelays({15,15,15,15});
swAllocDelays=swAllocDelays({15,15,15,15});
stFinalDelays=stFinalDelays({15,15,15,15});

isAsync=isAsync({0,0,0,0});
isMetaUnstable=isMetaUnstable({0,0,0,0});

creditDelayStdDevs=creditDelayStdDevs({0,0,0,0});
routingDelayStdDevs=routingDelayStdDevs({0,0,0,0});
vcAllocDelayStdDevs=vcAllocDelayStdDevs({0,0,0,0});
swAllocDelayStdDevs=swAllocDelayStdDevs({0,0,0,0});
stFinalDelayStdDevs=stFinalDelayStdDevs({0,0,0,0});

  
swAllocThresholds=swAllocThresholds({1,1,1,1});
swAllocThresholdStdDevs=swAllocThresholdStdDevs({0,0,0,0});
swAllocMetaStableThresholds=swAllocMetaStableThresholds({1,1,1,1});
swAllocMetaStableMaxPenalities=swAllocMetaStableMaxPenalities({0,0,0,0});

END Configuration File: chiplet16/chip5
BEGIN Configuration File: chiplet16/chip6
//topology
topology = mesh;
k = 2;
n = 2;
type = chip;
start_point = 10;
cnum=6;
//18
// Routing
routing_function = dor;

// Flow control
num_vcs     = 2;
vc_buf_size = 8;
wait_for_tail_credit = 1;
hold_switch_for_packet = 1;

// Router architecture
vc_allocator = islip;
sw_allocator = islip;
alloc_iters  = 1;

credit_delay   = 0;
routing_delay  = 1;
vc_alloc_delay = 1;
sw_alloc_delay = 1;
st_final_delay = 1;

input_speedup     = 1;
output_speedup    = 1;
internal_speedup  = 1.0;
vc_busy_when_full = 0;


//granulaity
latency_thres=20000.0;
deadlock_warn_timeout=20000;
traceStretch=3;

//gating
doGating=0;
sleepThreshold=40;
breakEvenThreshold=80;



//Syn Traffic
sim_type=latency;
traffic=uniform;
packet_size = 1;
sample_period=50000;
warmup_periods=1;
max_samples=12;
injection_rate=0.01;

creditDelays=creditDelays({0,0,0,0});
routingDelays=routingDelays({15,15,15,15});
vcAllocDelays=vcAllocDelays({15,15,15,15});
swAllocDelays=swAllocDelays({15,15,15,15});
stFinalDelays=stFinalDelays({15,15,15,15});

isAsync=isAsync({0,0,0,0});
isMetaUnstable=isMetaUnstable({0,0,0,0});

creditDelayStdDevs=creditDelayStdDevs({0,0,0,0});
routingDelayStdDevs=routingDelayStdDevs({0,0,0,0});
vcAllocDelayStdDevs=vcAllocDelayStdDevs({0,0,0,0});
swAllocDelayStdDevs=swAllocDelayStdDevs({0,0,0,0});
stFinalDelayStdDevs=stFinalDelayStdDevs({0,0,0,0});

  
swAllocThresholds=swAllocThresholds({1,1,1,1});
swAllocThresholdStdDevs=swAllocThresholdStdDevs({0,0,0,0});
swAllocMetaStableThresholds=swAllocMetaStableThresholds({1,1,1,1});
swAllocMetaStableMaxPenalities=swAllocMetaStableMaxPenalities({0,0,0,0});

END Configuration File: chiplet16/chip6
BEGIN Configuration File: chiplet16/chip7
//topology
topology = mesh;
k = 2;
n = 2;
type = chip;
start_point = 20;
cnum=7;
// Routing
routing_function = dor;

// Flow control
num_vcs     = 2;
vc_buf_size = 8;
wait_for_tail_credit = 1;
hold_switch_for_packet = 1;

// Router architecture
vc_allocator = islip;
sw_allocator = islip;
alloc_iters  = 1;

credit_delay   = 0;
routing_delay  = 1;
vc_alloc_delay = 1;
sw_alloc_delay = 1;
st_final_delay = 1;

input_speedup     = 1;
output_speedup    = 1;
internal_speedup  = 1.0;
vc_busy_when_full = 0;


//granulaity
latency_thres=20000.0;
deadlock_warn_timeout=20000;
traceStretch=3;

//gating
doGating=0;
sleepThreshold=40;
breakEvenThreshold=80;



//Syn Traffic
sim_type=latency;
traffic=uniform;
packet_size = 1;
sample_period=50000;
warmup_periods=1;
max_samples=12;
injection_rate=0.01;

creditDelays=creditDelays({0,0,0,0});
routingDelays=routingDelays({15,15,15,15});
vcAllocDelays=vcAllocDelays({15,15,15,15});
swAllocDelays=swAllocDelays({15,15,15,15});
stFinalDelays=stFinalDelays({15,15,15,15});

isAsync=isAsync({0,0,0,0});
isMetaUnstable=isMetaUnstable({0,0,0,0});

creditDelayStdDevs=creditDelayStdDevs({0,0,0,0});
routingDelayStdDevs=routingDelayStdDevs({0,0,0,0});
vcAllocDelayStdDevs=vcAllocDelayStdDevs({0,0,0,0});
swAllocDelayStdDevs=swAllocDelayStdDevs({0,0,0,0});
stFinalDelayStdDevs=stFinalDelayStdDevs({0,0,0,0});

  
swAllocThresholds=swAllocThresholds({1,1,1,1});
swAllocThresholdStdDevs=swAllocThresholdStdDevs({0,0,0,0});
swAllocMetaStableThresholds=swAllocMetaStableThresholds({1,1,1,1});
swAllocMetaStableMaxPenalities=swAllocMetaStableMaxPenalities({0,0,0,0});

END Configuration File: chiplet16/chip7
BEGIN Configuration File: chiplet16/chip8
//topology
topology = mesh;
k = 2;
n = 2;
type = chip;
start_point = 22;
cnum=8;
// Routing
routing_function = dor;

// Flow control
num_vcs     = 2;
vc_buf_size = 8;
wait_for_tail_credit = 1;
hold_switch_for_packet = 1;

// Router architecture
vc_allocator = islip;
sw_allocator = islip;
alloc_iters  = 1;

credit_delay   = 0;
routing_delay  = 1;
vc_alloc_delay = 1;
sw_alloc_delay = 1;
st_final_delay = 1;

input_speedup     = 1;
output_speedup    = 1;
internal_speedup  = 1.0;
vc_busy_when_full = 0;


//granulaity
latency_thres=20000.0;
deadlock_warn_timeout=20000;
traceStretch=3;

//gating
doGating=0;
sleepThreshold=40;
breakEvenThreshold=80;



//Syn Traffic
sim_type=latency;
traffic=uniform;
packet_size = 1;
sample_period=50000;
warmup_periods=1;
max_samples=12;
injection_rate=0.01;

creditDelays=creditDelays({0,0,0,0});
routingDelays=routingDelays({15,15,15,15});
vcAllocDelays=vcAllocDelays({15,15,15,15});
swAllocDelays=swAllocDelays({15,15,15,15});
stFinalDelays=stFinalDelays({15,15,15,15});

isAsync=isAsync({0,0,0,0});
isMetaUnstable=isMetaUnstable({0,0,0,0});

creditDelayStdDevs=creditDelayStdDevs({0,0,0,0});
routingDelayStdDevs=routingDelayStdDevs({0,0,0,0});
vcAllocDelayStdDevs=vcAllocDelayStdDevs({0,0,0,0});
swAllocDelayStdDevs=swAllocDelayStdDevs({0,0,0,0});
stFinalDelayStdDevs=stFinalDelayStdDevs({0,0,0,0});

  
swAllocThresholds=swAllocThresholds({1,1,1,1});
swAllocThresholdStdDevs=swAllocThresholdStdDevs({0,0,0,0});
swAllocMetaStableThresholds=swAllocMetaStableThresholds({1,1,1,1});
swAllocMetaStableMaxPenalities=swAllocMetaStableMaxPenalities({0,0,0,0});

END Configuration File: chiplet16/chip8
BEGIN Configuration File: chiplet16/chip9
//topology
topology = mesh;
k = 2;
n = 2;
type = chip;
start_point = 32;
cnum=9;
// Routing
routing_function = dor;

// Flow control
num_vcs     = 2;
vc_buf_size = 8;
wait_for_tail_credit = 1;
hold_switch_for_packet = 1;

// Router architecture
vc_allocator = islip;
sw_allocator = islip;
alloc_iters  = 1;

credit_delay   = 0;
routing_delay  = 1;
vc_alloc_delay = 1;
sw_alloc_delay = 1;
st_final_delay = 1;

input_speedup     = 1;
output_speedup    = 1;
internal_speedup  = 1.0;
vc_busy_when_full = 0;


//granulaity
latency_thres=20000.0;
deadlock_warn_timeout=20000;
traceStretch=3;

//gating
doGating=0;
sleepThreshold=40;
breakEvenThreshold=80;



//Syn Traffic
sim_type=latency;
traffic=uniform;
packet_size = 1;
sample_period=50000;
warmup_periods=1;
max_samples=12;
injection_rate=0.01;

creditDelays=creditDelays({0,0,0,0});
routingDelays=routingDelays({15,15,15,15});
vcAllocDelays=vcAllocDelays({15,15,15,15});
swAllocDelays=swAllocDelays({15,15,15,15});
stFinalDelays=stFinalDelays({15,15,15,15});

isAsync=isAsync({0,0,0,0});
isMetaUnstable=isMetaUnstable({0,0,0,0});

creditDelayStdDevs=creditDelayStdDevs({0,0,0,0});
routingDelayStdDevs=routingDelayStdDevs({0,0,0,0});
vcAllocDelayStdDevs=vcAllocDelayStdDevs({0,0,0,0});
swAllocDelayStdDevs=swAllocDelayStdDevs({0,0,0,0});
stFinalDelayStdDevs=stFinalDelayStdDevs({0,0,0,0});

  
swAllocThresholds=swAllocThresholds({1,1,1,1});
swAllocThresholdStdDevs=swAllocThresholdStdDevs({0,0,0,0});
swAllocMetaStableThresholds=swAllocMetaStableThresholds({1,1,1,1});
swAllocMetaStableMaxPenalities=swAllocMetaStableMaxPenalities({0,0,0,0});

END Configuration File: chiplet16/chip9
BEGIN Configuration File: chiplet16/chip10
//topology
topology = mesh;
k = 2;
n = 2;
type = chip;
start_point = 34;
cnum=10;
// Routing
routing_function = dor;

// Flow control
num_vcs     = 2;
vc_buf_size = 8;
wait_for_tail_credit = 1;
hold_switch_for_packet = 1;

// Router architecture
vc_allocator = islip;
sw_allocator = islip;
alloc_iters  = 1;

credit_delay   = 0;
routing_delay  = 1;
vc_alloc_delay = 1;
sw_alloc_delay = 1;
st_final_delay = 1;

input_speedup     = 1;
output_speedup    = 1;
internal_speedup  = 1.0;
vc_busy_when_full = 0;


//granulaity
latency_thres=20000.0;
deadlock_warn_timeout=20000;
traceStretch=3;

//gating
doGating=0;
sleepThreshold=40;
breakEvenThreshold=80;



//Syn Traffic
sim_type=latency;
traffic=uniform;
packet_size = 1;
sample_period=50000;
warmup_periods=1;
max_samples=12;
injection_rate=0.01;

creditDelays=creditDelays({0,0,0,0});
routingDelays=routingDelays({15,15,15,15});
vcAllocDelays=vcAllocDelays({15,15,15,15});
swAllocDelays=swAllocDelays({15,15,15,15});
stFinalDelays=stFinalDelays({15,15,15,15});

isAsync=isAsync({0,0,0,0});
isMetaUnstable=isMetaUnstable({0,0,0,0});

creditDelayStdDevs=creditDelayStdDevs({0,0,0,0});
routingDelayStdDevs=routingDelayStdDevs({0,0,0,0});
vcAllocDelayStdDevs=vcAllocDelayStdDevs({0,0,0,0});
swAllocDelayStdDevs=swAllocDelayStdDevs({0,0,0,0});
stFinalDelayStdDevs=stFinalDelayStdDevs({0,0,0,0});

  
swAllocThresholds=swAllocThresholds({1,1,1,1});
swAllocThresholdStdDevs=swAllocThresholdStdDevs({0,0,0,0});
swAllocMetaStableThresholds=swAllocMetaStableThresholds({1,1,1,1});
swAllocMetaStableMaxPenalities=swAllocMetaStableMaxPenalities({0,0,0,0});

END Configuration File: chiplet16/chip10
BEGIN Configuration File: chiplet16/chip11
//topology
topology = mesh;
k = 2;
n = 2;
type = chip;
start_point = 36;
cnum=11;
// Routing
routing_function = dor;

// Flow control
num_vcs     = 2;
vc_buf_size = 8;
wait_for_tail_credit = 1;
hold_switch_for_packet = 1;

// Router architecture
vc_allocator = islip;
sw_allocator = islip;
alloc_iters  = 1;

credit_delay   = 0;
routing_delay  = 1;
vc_alloc_delay = 1;
sw_alloc_delay = 1;
st_final_delay = 1;

input_speedup     = 1;
output_speedup    = 1;
internal_speedup  = 1.0;
vc_busy_when_full = 0;


//granulaity
latency_thres=20000.0;
deadlock_warn_timeout=20000;
traceStretch=3;

//gating
doGating=0;
sleepThreshold=40;
breakEvenThreshold=80;



//Syn Traffic
sim_type=latency;
traffic=uniform;
packet_size = 1;
sample_period=50000;
warmup_periods=1;
max_samples=12;
injection_rate=0.01;

creditDelays=creditDelays({0,0,0,0});
routingDelays=routingDelays({15,15,15,15});
vcAllocDelays=vcAllocDelays({15,15,15,15});
swAllocDelays=swAllocDelays({15,15,15,15});
stFinalDelays=stFinalDelays({15,15,15,15});

isAsync=isAsync({0,0,0,0});
isMetaUnstable=isMetaUnstable({0,0,0,0});

creditDelayStdDevs=creditDelayStdDevs({0,0,0,0});
routingDelayStdDevs=routingDelayStdDevs({0,0,0,0});
vcAllocDelayStdDevs=vcAllocDelayStdDevs({0,0,0,0});
swAllocDelayStdDevs=swAllocDelayStdDevs({0,0,0,0});
stFinalDelayStdDevs=stFinalDelayStdDevs({0,0,0,0});

  
swAllocThresholds=swAllocThresholds({1,1,1,1});
swAllocThresholdStdDevs=swAllocThresholdStdDevs({0,0,0,0});
swAllocMetaStableThresholds=swAllocMetaStableThresholds({1,1,1,1});
swAllocMetaStableMaxPenalities=swAllocMetaStableMaxPenalities({0,0,0,0});

END Configuration File: chiplet16/chip11
BEGIN Configuration File: chiplet16/chip12
//topology
topology = mesh;
k = 2;
n = 2;
type = chip;
start_point = 38;
cnum=12;
// Routing
routing_function = dor;

// Flow control
num_vcs     = 2;
vc_buf_size = 8;
wait_for_tail_credit = 1;
hold_switch_for_packet = 1;

// Router architecture
vc_allocator = islip;
sw_allocator = islip;
alloc_iters  = 1;

credit_delay   = 0;
routing_delay  = 1;
vc_alloc_delay = 1;
sw_alloc_delay = 1;
st_final_delay = 1;

input_speedup     = 1;
output_speedup    = 1;
internal_speedup  = 1.0;
vc_busy_when_full = 0;


//granulaity
latency_thres=20000.0;
deadlock_warn_timeout=20000;
traceStretch=3;

//gating
doGating=0;
sleepThreshold=40;
breakEvenThreshold=80;



//Syn Traffic
sim_type=latency;
traffic=uniform;
packet_size = 1;
sample_period=50000;
warmup_periods=1;
max_samples=12;
injection_rate=0.01;

creditDelays=creditDelays({0,0,0,0});
routingDelays=routingDelays({15,15,15,15});
vcAllocDelays=vcAllocDelays({15,15,15,15});
swAllocDelays=swAllocDelays({15,15,15,15});
stFinalDelays=stFinalDelays({15,15,15,15});

isAsync=isAsync({0,0,0,0});
isMetaUnstable=isMetaUnstable({0,0,0,0});

creditDelayStdDevs=creditDelayStdDevs({0,0,0,0});
routingDelayStdDevs=routingDelayStdDevs({0,0,0,0});
vcAllocDelayStdDevs=vcAllocDelayStdDevs({0,0,0,0});
swAllocDelayStdDevs=swAllocDelayStdDevs({0,0,0,0});
stFinalDelayStdDevs=stFinalDelayStdDevs({0,0,0,0});

  
swAllocThresholds=swAllocThresholds({1,1,1,1});
swAllocThresholdStdDevs=swAllocThresholdStdDevs({0,0,0,0});
swAllocMetaStableThresholds=swAllocMetaStableThresholds({1,1,1,1});
swAllocMetaStableMaxPenalities=swAllocMetaStableMaxPenalities({0,0,0,0});

END Configuration File: chiplet16/chip12
BEGIN Configuration File: chiplet16/chip13
//topology
topology = mesh;
k = 2;
n = 2;
type = chip;
start_point = 48;
cnum=13;
// Routing
routing_function = dor;

// Flow control
num_vcs     = 2;
vc_buf_size = 8;
wait_for_tail_credit = 1;
hold_switch_for_packet = 1;

// Router architecture
vc_allocator = islip;
sw_allocator = islip;
alloc_iters  = 1;

credit_delay   = 0;
routing_delay  = 1;
vc_alloc_delay = 1;
sw_alloc_delay = 1;
st_final_delay = 1;

input_speedup     = 1;
output_speedup    = 1;
internal_speedup  = 1.0;
vc_busy_when_full = 0;


//granulaity
latency_thres=20000.0;
deadlock_warn_timeout=20000;
traceStretch=3;

//gating
doGating=0;
sleepThreshold=40;
breakEvenThreshold=80;



//Syn Traffic
sim_type=latency;
traffic=uniform;
packet_size = 1;
sample_period=50000;
warmup_periods=1;
max_samples=12;
injection_rate=0.01;

creditDelays=creditDelays({0,0,0,0});
routingDelays=routingDelays({15,15,15,15});
vcAllocDelays=vcAllocDelays({15,15,15,15});
swAllocDelays=swAllocDelays({15,15,15,15});
stFinalDelays=stFinalDelays({15,15,15,15});

isAsync=isAsync({0,0,0,0});
isMetaUnstable=isMetaUnstable({0,0,0,0});

creditDelayStdDevs=creditDelayStdDevs({0,0,0,0});
routingDelayStdDevs=routingDelayStdDevs({0,0,0,0});
vcAllocDelayStdDevs=vcAllocDelayStdDevs({0,0,0,0});
swAllocDelayStdDevs=swAllocDelayStdDevs({0,0,0,0});
stFinalDelayStdDevs=stFinalDelayStdDevs({0,0,0,0});

  
swAllocThresholds=swAllocThresholds({1,1,1,1});
swAllocThresholdStdDevs=swAllocThresholdStdDevs({0,0,0,0});
swAllocMetaStableThresholds=swAllocMetaStableThresholds({1,1,1,1});
swAllocMetaStableMaxPenalities=swAllocMetaStableMaxPenalities({0,0,0,0});

END Configuration File: chiplet16/chip13
BEGIN Configuration File: chiplet16/chip14
//topology
topology = mesh;
k = 2;
n = 2;
type = chip;
start_point = 50;
cnum=14;
// Routing
routing_function = dor;

// Flow control
num_vcs     = 2;
vc_buf_size = 8;
wait_for_tail_credit = 1;
hold_switch_for_packet = 1;

// Router architecture
vc_allocator = islip;
sw_allocator = islip;
alloc_iters  = 1;

credit_delay   = 0;
routing_delay  = 1;
vc_alloc_delay = 1;
sw_alloc_delay = 1;
st_final_delay = 1;

input_speedup     = 1;
output_speedup    = 1;
internal_speedup  = 1.0;
vc_busy_when_full = 0;


//granulaity
latency_thres=20000.0;
deadlock_warn_timeout=20000;
traceStretch=3;

//gating
doGating=0;
sleepThreshold=40;
breakEvenThreshold=80;



//Syn Traffic
sim_type=latency;
traffic=uniform;
packet_size = 1;
sample_period=50000;
warmup_periods=1;
max_samples=12;
injection_rate=0.01;

creditDelays=creditDelays({0,0,0,0});
routingDelays=routingDelays({15,15,15,15});
vcAllocDelays=vcAllocDelays({15,15,15,15});
swAllocDelays=swAllocDelays({15,15,15,15});
stFinalDelays=stFinalDelays({15,15,15,15});

isAsync=isAsync({0,0,0,0});
isMetaUnstable=isMetaUnstable({0,0,0,0});

creditDelayStdDevs=creditDelayStdDevs({0,0,0,0});
routingDelayStdDevs=routingDelayStdDevs({0,0,0,0});
vcAllocDelayStdDevs=vcAllocDelayStdDevs({0,0,0,0});
swAllocDelayStdDevs=swAllocDelayStdDevs({0,0,0,0});
stFinalDelayStdDevs=stFinalDelayStdDevs({0,0,0,0});

  
swAllocThresholds=swAllocThresholds({1,1,1,1});
swAllocThresholdStdDevs=swAllocThresholdStdDevs({0,0,0,0});
swAllocMetaStableThresholds=swAllocMetaStableThresholds({1,1,1,1});
swAllocMetaStableMaxPenalities=swAllocMetaStableMaxPenalities({0,0,0,0});

END Configuration File: chiplet16/chip14
BEGIN Configuration File: chiplet16/chip15
//topology
topology = mesh;
k = 2;
n = 2;
type = chip;
start_point = 52;
cnum=15;
// Routing
routing_function = dor;

// Flow control
num_vcs     = 2;
vc_buf_size = 8;
wait_for_tail_credit = 1;
hold_switch_for_packet = 1;

// Router architecture
vc_allocator = islip;
sw_allocator = islip;
alloc_iters  = 1;

credit_delay   = 0;
routing_delay  = 1;
vc_alloc_delay = 1;
sw_alloc_delay = 1;
st_final_delay = 1;

input_speedup     = 1;
output_speedup    = 1;
internal_speedup  = 1.0;
vc_busy_when_full = 0;


//granulaity
latency_thres=20000.0;
deadlock_warn_timeout=20000;
traceStretch=3;

//gating
doGating=0;
sleepThreshold=40;
breakEvenThreshold=80;



//Syn Traffic
sim_type=latency;
traffic=uniform;
packet_size = 1;
sample_period=50000;
warmup_periods=1;
max_samples=12;
injection_rate=0.01;

creditDelays=creditDelays({0,0,0,0});
routingDelays=routingDelays({15,15,15,15});
vcAllocDelays=vcAllocDelays({15,15,15,15});
swAllocDelays=swAllocDelays({15,15,15,15});
stFinalDelays=stFinalDelays({15,15,15,15});

isAsync=isAsync({0,0,0,0});
isMetaUnstable=isMetaUnstable({0,0,0,0});

creditDelayStdDevs=creditDelayStdDevs({0,0,0,0});
routingDelayStdDevs=routingDelayStdDevs({0,0,0,0});
vcAllocDelayStdDevs=vcAllocDelayStdDevs({0,0,0,0});
swAllocDelayStdDevs=swAllocDelayStdDevs({0,0,0,0});
stFinalDelayStdDevs=stFinalDelayStdDevs({0,0,0,0});

  
swAllocThresholds=swAllocThresholds({1,1,1,1});
swAllocThresholdStdDevs=swAllocThresholdStdDevs({0,0,0,0});
swAllocMetaStableThresholds=swAllocMetaStableThresholds({1,1,1,1});
swAllocMetaStableMaxPenalities=swAllocMetaStableMaxPenalities({0,0,0,0});

END Configuration File: chiplet16/chip15
BEGIN Configuration File: chiplet16/chip16
//topology
topology = mesh;
k = 2;
n = 2;
type = chip;
start_point = 54;
cnum=16;
// Routing
routing_function = dor;

// Flow control
num_vcs     = 2;
vc_buf_size = 8;
wait_for_tail_credit = 1;
hold_switch_for_packet = 1;

// Router architecture
vc_allocator = islip;
sw_allocator = islip;
alloc_iters  = 1;

credit_delay   = 0;
routing_delay  = 1;
vc_alloc_delay = 1;
sw_alloc_delay = 1;
st_final_delay = 1;

input_speedup     = 1;
output_speedup    = 1;
internal_speedup  = 1.0;
vc_busy_when_full = 0;


//granulaity
latency_thres=20000.0;
deadlock_warn_timeout=20000;
traceStretch=3;

//gating
doGating=0;
sleepThreshold=40;
breakEvenThreshold=80;



//Syn Traffic
sim_type=latency;
traffic=uniform;
packet_size = 1;
sample_period=50000;
warmup_periods=1;
max_samples=12;
injection_rate=0.01;

creditDelays=creditDelays({0,0,0,0});
routingDelays=routingDelays({15,15,15,15});
vcAllocDelays=vcAllocDelays({15,15,15,15});
swAllocDelays=swAllocDelays({15,15,15,15});
stFinalDelays=stFinalDelays({15,15,15,15});

isAsync=isAsync({0,0,0,0});
isMetaUnstable=isMetaUnstable({0,0,0,0});

creditDelayStdDevs=creditDelayStdDevs({0,0,0,0});
routingDelayStdDevs=routingDelayStdDevs({0,0,0,0});
vcAllocDelayStdDevs=vcAllocDelayStdDevs({0,0,0,0});
swAllocDelayStdDevs=swAllocDelayStdDevs({0,0,0,0});
stFinalDelayStdDevs=stFinalDelayStdDevs({0,0,0,0});

  
swAllocThresholds=swAllocThresholds({1,1,1,1});
swAllocThresholdStdDevs=swAllocThresholdStdDevs({0,0,0,0});
swAllocMetaStableThresholds=swAllocMetaStableThresholds({1,1,1,1});
swAllocMetaStableMaxPenalities=swAllocMetaStableMaxPenalities({0,0,0,0});

END Configuration File: chiplet16/chip16
rid:0 add output _25chan1
rid:0 add input _25chan0
rid:1 add output _25chan3
rid:1 add input _25chan2
rid:2 add output _25chan9
rid:2 add input _25chan8
rid:3 add output _25chan11
rid:3 add input _25chan10
rid:4 add output _25chan17
rid:4 add input _25chan16
rid:5 add output _25chan19
rid:5 add input _25chan18
rid:6 add output _25chan25
rid:6 add input _25chan24
rid:7 add output _25chan27
rid:7 add input _25chan26
rid:8 add output _25chan5
rid:8 add input _25chan4
rid:9 add output _25chan7
rid:9 add input _25chan6
rid:10 add output _25chan13
rid:10 add input _25chan12
rid:11 add output _25chan15
rid:11 add input _25chan14
rid:12 add output _25chan21
rid:12 add input _25chan20
rid:13 add output _25chan23
rid:13 add input _25chan22
rid:14 add output _25chan29
rid:14 add input _25chan28
rid:15 add output _25chan31
rid:15 add input _25chan30
rid:16 add output _25chan37
rid:16 add input _25chan36
rid:17 add output _25chan39
rid:17 add input _25chan38
rid:18 add output _25chan45
rid:18 add input _25chan44
rid:19 add output _25chan47
rid:19 add input _25chan46
rid:20 add output _25chan49
rid:20 add input _25chan48
rid:21 add output _25chan51
rid:21 add input _25chan50
rid:22 add output _25chan57
rid:22 add input _25chan56
rid:23 add output _25chan59
rid:23 add input _25chan58
rid:24 add uselessoutput chan256
rid:25 add uselessoutput chan256
rid:26 add uselessoutput chan256
rid:27 add uselessoutput chan256
rid:28 add output _25chan53
rid:28 add input _25chan52
rid:29 add output _25chan55
rid:29 add input _25chan54
rid:30 add output _25chan61
rid:30 add input _25chan60
rid:31 add output _25chan63
rid:31 add input _25chan62
rid:32 add output _25chan65
rid:32 add input _25chan64
rid:33 add output _25chan67
rid:33 add input _25chan66
rid:34 add output _25chan73
rid:34 add input _25chan72
rid:35 add output _25chan75
rid:35 add input _25chan74
rid:36 add output _25chan81
rid:36 add input _25chan80
rid:37 add output _25chan83
rid:37 add input _25chan82
rid:38 add output _25chan89
rid:38 add input _25chan88
rid:39 add output _25chan91
rid:39 add input _25chan90
rid:40 add output _25chan69
rid:40 add input _25chan68
rid:41 add output _25chan71
rid:41 add input _25chan70
rid:42 add output _25chan77
rid:42 add input _25chan76
rid:43 add output _25chan79
rid:43 add input _25chan78
rid:44 add output _25chan85
rid:44 add input _25chan84
rid:45 add output _25chan87
rid:45 add input _25chan86
rid:46 add output _25chan93
rid:46 add input _25chan92
rid:47 add output _25chan95
rid:47 add input _25chan94
rid:48 add output _25chan97
rid:48 add input _25chan96
rid:49 add output _25chan99
rid:49 add input _25chan98
rid:50 add output _25chan105
rid:50 add input _25chan104
rid:51 add output _25chan107
rid:51 add input _25chan106
rid:52 add output _25chan113
rid:52 add input _25chan112
rid:53 add output _25chan115
rid:53 add input _25chan114
rid:54 add output _25chan121
rid:54 add input _25chan120
rid:55 add output _25chan123
rid:55 add input _25chan122
rid:56 add output _25chan101
rid:56 add input _25chan100
rid:57 add output _25chan103
rid:57 add input _25chan102
rid:58 add output _25chan109
rid:58 add input _25chan108
rid:59 add output _25chan111
rid:59 add input _25chan110
rid:60 add output _25chan117
rid:60 add input _25chan116
rid:61 add output _25chan119
rid:61 add input _25chan118
rid:62 add output _25chan125
rid:62 add input _25chan124
rid:63 add output _25chan127
rid:63 add input _25chan126
rid:0 add output _25chan0
rid:0 add input _25chan1
rid:1 add output _25chan2
rid:1 add input _25chan3
rid:2 add output _25chan4
rid:2 add input _25chan5
rid:3 add output _25chan6
rid:3 add input _25chan7
rid:0 add output _25chan8
rid:0 add input _25chan9
rid:1 add output _25chan10
rid:1 add input _25chan11
rid:2 add output _25chan12
rid:2 add input _25chan13
rid:3 add output _25chan14
rid:3 add input _25chan15
rid:0 add output _25chan16
rid:0 add input _25chan17
rid:1 add output _25chan18
rid:1 add input _25chan19
rid:2 add output _25chan20
rid:2 add input _25chan21
rid:3 add output _25chan22
rid:3 add input _25chan23
rid:0 add output _25chan24
rid:0 add input _25chan25
rid:1 add output _25chan26
rid:1 add input _25chan27
rid:2 add output _25chan28
rid:2 add input _25chan29
rid:3 add output _25chan30
rid:3 add input _25chan31
rid:0 add output _25chan32
rid:0 add input _25chan33
rid:1 add output _25chan34
rid:1 add input _25chan35
rid:2 add output _25chan36
rid:2 add input _25chan37
rid:3 add output _25chan38
rid:3 add input _25chan39
rid:0 add output _25chan40
rid:0 add input _25chan41
rid:1 add output _25chan42
rid:1 add input _25chan43
rid:2 add output _25chan44
rid:2 add input _25chan45
rid:3 add output _25chan46
rid:3 add input _25chan47
rid:0 add output _25chan48
rid:0 add input _25chan49
rid:1 add output _25chan50
rid:1 add input _25chan51
rid:2 add output _25chan52
rid:2 add input _25chan53
rid:3 add output _25chan54
rid:3 add input _25chan55
rid:0 add output _25chan56
rid:0 add input _25chan57
rid:1 add output _25chan58
rid:1 add input _25chan59
rid:2 add output _25chan60
rid:2 add input _25chan61
rid:3 add output _25chan62
rid:3 add input _25chan63
rid:0 add output _25chan64
rid:0 add input _25chan65
rid:1 add output _25chan66
rid:1 add input _25chan67
rid:2 add output _25chan68
rid:2 add input _25chan69
rid:3 add output _25chan70
rid:3 add input _25chan71
rid:0 add output _25chan72
rid:0 add input _25chan73
rid:1 add output _25chan74
rid:1 add input _25chan75
rid:2 add output _25chan76
rid:2 add input _25chan77
rid:3 add output _25chan78
rid:3 add input _25chan79
rid:0 add output _25chan80
rid:0 add input _25chan81
rid:1 add output _25chan82
rid:1 add input _25chan83
rid:2 add output _25chan84
rid:2 add input _25chan85
rid:3 add output _25chan86
rid:3 add input _25chan87
rid:0 add output _25chan88
rid:0 add input _25chan89
rid:1 add output _25chan90
rid:1 add input _25chan91
rid:2 add output _25chan92
rid:2 add input _25chan93
rid:3 add output _25chan94
rid:3 add input _25chan95
rid:0 add output _25chan96
rid:0 add input _25chan97
rid:1 add output _25chan98
rid:1 add input _25chan99
rid:2 add output _25chan100
rid:2 add input _25chan101
rid:3 add output _25chan102
rid:3 add input _25chan103
rid:0 add output _25chan104
rid:0 add input _25chan105
rid:1 add output _25chan106
rid:1 add input _25chan107
rid:2 add output _25chan108
rid:2 add input _25chan109
rid:3 add output _25chan110
rid:3 add input _25chan111
rid:0 add output _25chan112
rid:0 add input _25chan113
rid:1 add output _25chan114
rid:1 add input _25chan115
rid:2 add output _25chan116
rid:2 add input _25chan117
rid:3 add output _25chan118
rid:3 add input _25chan119
rid:0 add output _25chan120
rid:0 add input _25chan121
rid:1 add output _25chan122
rid:1 add input _25chan123
rid:2 add output _25chan124
rid:2 add input _25chan125
rid:3 add output _25chan126
rid:3 add input _25chan127

Tick: 0M
===== Time: 5000 =====
Class 0:
Minimum packet latency = 62
Average packet latency = 652.474
Maximum packet latency = 2512
Minimum network latency = 63
Average network latency = 639.229
Maximum network latency = 2394
Slowest packet = 373
Minimum flit latency = 63
Average flit latency = 639.229
Maximum flit latency = 2394
Slowest flit = 658
Minimum fragmentation = 0
Average fragmentation = 0
Maximum fragmentation = 0
Minimum injected packet rate = 0 (at node 0)
Average injected packet rate = 0.00280156
Maximum injected packet rate = 0.011 (at node 71)
Minimum accepted packet rate = 0 (at node 0)
Average accepted packet rate = 0.00243125
Maximum accepted packet rate = 0.0108 (at node 71)
Minimum injected flit rate = 0 (at node 0)
Average injected flit rate = 0.00280156
Maximum injected flit rate = 0.011 (at node 71)
Minimum accepted flit rate = 0 (at node 0)
Average accepted flit rate = 0.00243125
Maximum accepted flit rate = 0.0108 (at node 71)
Total number of injected packets = 1793
Total number of injected flits = 1793
Average injected packet length = 1
Total number of accepted packets = 1556
Total number of accepted flits = 1556
Average accepted packet length = 1
Total in-flight flits = 248 (0 measured)
class 0 latency change    = 1
class 0 throughput change = 1
Warmed up ...Time used is 5000 cycles
===== Time: 10000 =====
Class 0:
Minimum packet latency = 62
Average packet latency = 668.893
Maximum packet latency = 3699
Minimum network latency = 63
Average network latency = 641.9
Maximum network latency = 3078
Slowest packet = 1810
Minimum flit latency = 63
Average flit latency = 676.606
Maximum flit latency = 3078
Slowest flit = 1810
Minimum fragmentation = 0
Average fragmentation = 0
Maximum fragmentation = 0
Minimum injected packet rate = 0 (at node 0)
Average injected packet rate = 0.00281406
Maximum injected packet rate = 0.0118 (at node 71)
Minimum accepted packet rate = 0 (at node 0)
Average accepted packet rate = 0.00274219
Maximum accepted packet rate = 0.0116 (at node 70)
Minimum injected flit rate = 0 (at node 0)
Average injected flit rate = 0.00281406
Maximum injected flit rate = 0.0118 (at node 71)
Minimum accepted flit rate = 0 (at node 0)
Average accepted flit rate = 0.00274219
Maximum accepted flit rate = 0.0116 (at node 70)
Total number of injected packets = 1801
Total number of injected flits = 1801
Average injected packet length = 1
Total number of accepted packets = 1755
Total number of accepted flits = 1755
Average accepted packet length = 1
Total in-flight flits = 318 (318 measured)
class 0 latency change    = 0.0245473
class 0 throughput change = 0.11339
===== Time: 15000 =====
Class 0:
Minimum packet latency = 62
Average packet latency = 807.543
Maximum packet latency = 6173
Minimum network latency = 63
Average network latency = 736.565
Maximum network latency = 3868
Slowest packet = 1810
Minimum flit latency = 63
Average flit latency = 747.032
Maximum flit latency = 3868
Slowest flit = 3907
Minimum fragmentation = 0
Average fragmentation = 0
Maximum fragmentation = 0
Minimum injected packet rate = 0 (at node 0)
Average injected packet rate = 0.00282578
Maximum injected packet rate = 0.0114 (at node 71)
Minimum accepted packet rate = 0 (at node 0)
Average accepted packet rate = 0.00279375
Maximum accepted packet rate = 0.0113 (at node 66)
Minimum injected flit rate = 0 (at node 0)
Average injected flit rate = 0.00282578
Maximum injected flit rate = 0.0114 (at node 71)
Minimum accepted flit rate = 0 (at node 0)
Average accepted flit rate = 0.00279375
Maximum accepted flit rate = 0.0113 (at node 66)
Total number of injected packets = 3617
Total number of injected flits = 3617
Average injected packet length = 1
Total number of accepted packets = 3576
Total number of accepted flits = 3576
Average accepted packet length = 1
Total in-flight flits = 339 (339 measured)
class 0 latency change    = 0.171693
class 0 throughput change = 0.0184564
===== Time: 20000 =====
Class 0:
Minimum packet latency = 62
Average packet latency = 855.229
Maximum packet latency = 8308
Minimum network latency = 63
Average network latency = 742.286
Maximum network latency = 3980
Slowest packet = 1810
Minimum flit latency = 63
Average flit latency = 748.996
Maximum flit latency = 3980
Slowest flit = 4119
Minimum fragmentation = 0
Average fragmentation = 0
Maximum fragmentation = 0
Minimum injected packet rate = 0 (at node 0)
Average injected packet rate = 0.00281354
Maximum injected packet rate = 0.0121333 (at node 71)
Minimum accepted packet rate = 0 (at node 0)
Average accepted packet rate = 0.00279531
Maximum accepted packet rate = 0.0123333 (at node 66)
Minimum injected flit rate = 0 (at node 0)
Average injected flit rate = 0.00281354
Maximum injected flit rate = 0.0121333 (at node 71)
Minimum accepted flit rate = 0 (at node 0)
Average accepted flit rate = 0.00279531
Maximum accepted flit rate = 0.0123333 (at node 66)
Total number of injected packets = 5402
Total number of injected flits = 5402
Average injected packet length = 1
Total number of accepted packets = 5367
Total number of accepted flits = 5367
Average accepted packet length = 1
Total in-flight flits = 341 (341 measured)
class 0 latency change    = 0.0557584
class 0 throughput change = 0.000558971
===== Time: 25000 =====
Class 0:
Minimum packet latency = 62
Average packet latency = 906.285
Maximum packet latency = 9948
Minimum network latency = 63
Average network latency = 750.934
Maximum network latency = 3980
Slowest packet = 1810
Minimum flit latency = 63
Average flit latency = 755.655
Maximum flit latency = 3980
Slowest flit = 4119
Minimum fragmentation = 0
Average fragmentation = 0
Maximum fragmentation = 0
Minimum injected packet rate = 0 (at node 0)
Average injected packet rate = 0.00282266
Maximum injected packet rate = 0.01155 (at node 71)
Minimum accepted packet rate = 0 (at node 0)
Average accepted packet rate = 0.00280234
Maximum accepted packet rate = 0.01205 (at node 66)
Minimum injected flit rate = 0 (at node 0)
Average injected flit rate = 0.00282266
Maximum injected flit rate = 0.01155 (at node 71)
Minimum accepted flit rate = 0 (at node 0)
Average accepted flit rate = 0.00280234
Maximum accepted flit rate = 0.01205 (at node 66)
Total number of injected packets = 7226
Total number of injected flits = 7226
Average injected packet length = 1
Total number of accepted packets = 7174
Total number of accepted flits = 7174
Average accepted packet length = 1
Total in-flight flits = 345 (345 measured)
class 0 latency change    = 0.056335
class 0 throughput change = 0.00250906
===== Time: 30000 =====
Class 0:
Minimum packet latency = 62
Average packet latency = 934.275
Maximum packet latency = 10197
Minimum network latency = 63
Average network latency = 760.636
Maximum network latency = 3980
Slowest packet = 1810
Minimum flit latency = 63
Average flit latency = 764.12
Maximum flit latency = 3980
Slowest flit = 4119
Minimum fragmentation = 0
Average fragmentation = 0
Maximum fragmentation = 0
Minimum injected packet rate = 0 (at node 0)
Average injected packet rate = 0.00283188
Maximum injected packet rate = 0.01184 (at node 71)
Minimum accepted packet rate = 0 (at node 0)
Average accepted packet rate = 0.0028225
Maximum accepted packet rate = 0.01196 (at node 66)
Minimum injected flit rate = 0 (at node 0)
Average injected flit rate = 0.00283188
Maximum injected flit rate = 0.01184 (at node 71)
Minimum accepted flit rate = 0 (at node 0)
Average accepted flit rate = 0.0028225
Maximum accepted flit rate = 0.01196 (at node 66)
Total number of injected packets = 9062
Total number of injected flits = 9062
Average injected packet length = 1
Total number of accepted packets = 9032
Total number of accepted flits = 9032
Average accepted packet length = 1
Total in-flight flits = 330 (330 measured)
class 0 latency change    = 0.0299589
class 0 throughput change = 0.00714128
===== Time: 35000 =====
Class 0:
Minimum packet latency = 62
Average packet latency = 950.192
Maximum packet latency = 13185
Minimum network latency = 63
Average network latency = 758.784
Maximum network latency = 3980
Slowest packet = 1810
Minimum flit latency = 63
Average flit latency = 761.717
Maximum flit latency = 3980
Slowest flit = 4119
Minimum fragmentation = 0
Average fragmentation = 0
Maximum fragmentation = 0
Minimum injected packet rate = 0 (at node 0)
Average injected packet rate = 0.0028375
Maximum injected packet rate = 0.0120667 (at node 71)
Minimum accepted packet rate = 0 (at node 0)
Average accepted packet rate = 0.00283438
Maximum accepted packet rate = 0.0121333 (at node 66)
Minimum injected flit rate = 0 (at node 0)
Average injected flit rate = 0.0028375
Maximum injected flit rate = 0.0120667 (at node 71)
Minimum accepted flit rate = 0 (at node 0)
Average accepted flit rate = 0.00283438
Maximum accepted flit rate = 0.0121333 (at node 66)
Total number of injected packets = 10896
Total number of injected flits = 10896
Average injected packet length = 1
Total number of accepted packets = 10884
Total number of accepted flits = 10884
Average accepted packet length = 1
Total in-flight flits = 322 (322 measured)
class 0 latency change    = 0.0167523
class 0 throughput change = 0.00418964
===== Time: 40000 =====
Class 0:
Minimum packet latency = 62
Average packet latency = 947.771
Maximum packet latency = 14879
Minimum network latency = 63
Average network latency = 749.679
Maximum network latency = 4547
Slowest packet = 1810
Minimum flit latency = 63
Average flit latency = 752.378
Maximum flit latency = 4547
Slowest flit = 11858
Minimum fragmentation = 0
Average fragmentation = 0
Maximum fragmentation = 0
Minimum injected packet rate = 0 (at node 0)
Average injected packet rate = 0.00283438
Maximum injected packet rate = 0.0118286 (at node 71)
Minimum accepted packet rate = 0 (at node 0)
Average accepted packet rate = 0.00282723
Maximum accepted packet rate = 0.0120571 (at node 66)
Minimum injected flit rate = 0 (at node 0)
Average injected flit rate = 0.00283438
Maximum injected flit rate = 0.0118286 (at node 71)
Minimum accepted flit rate = 0 (at node 0)
Average accepted flit rate = 0.00282723
Maximum accepted flit rate = 0.0120571 (at node 66)
Total number of injected packets = 12698
Total number of injected flits = 12698
Average injected packet length = 1
Total number of accepted packets = 12666
Total number of accepted flits = 12666
Average accepted packet length = 1
Total in-flight flits = 373 (373 measured)
class 0 latency change    = 0.00255484
class 0 throughput change = 0.00252645
===== Time: 45000 =====
Class 0:
Minimum packet latency = 62
Average packet latency = 963.568
Maximum packet latency = 21102
Minimum network latency = 63
Average network latency = 750.698
Maximum network latency = 4547
Slowest packet = 1810
Minimum flit latency = 63
Average flit latency = 753.037
Maximum flit latency = 4547
Slowest flit = 11858
Minimum fragmentation = 0
Average fragmentation = 0
Maximum fragmentation = 0
Minimum injected packet rate = 0 (at node 0)
Average injected packet rate = 0.00283887
Maximum injected packet rate = 0.0118 (at node 71)
Minimum accepted packet rate = 0 (at node 0)
Average accepted packet rate = 0.00283262
Maximum accepted packet rate = 0.0119 (at node 66)
Minimum injected flit rate = 0 (at node 0)
Average injected flit rate = 0.00283887
Maximum injected flit rate = 0.0118 (at node 71)
Minimum accepted flit rate = 0 (at node 0)
Average accepted flit rate = 0.00283262
Maximum accepted flit rate = 0.0119 (at node 66)
Total number of injected packets = 14535
Total number of injected flits = 14535
Average injected packet length = 1
Total number of accepted packets = 14503
Total number of accepted flits = 14503
Average accepted packet length = 1
Total in-flight flits = 383 (383 measured)
class 0 latency change    = 0.0163946
class 0 throughput change = 0.00190108
===== Time: 50000 =====
Class 0:
Minimum packet latency = 62
Average packet latency = 981.999
Maximum packet latency = 24778
Minimum network latency = 63
Average network latency = 756.227
Maximum network latency = 4547
Slowest packet = 1810
Minimum flit latency = 63
Average flit latency = 758.234
Maximum flit latency = 4547
Slowest flit = 11858
Minimum fragmentation = 0
Average fragmentation = 0
Maximum fragmentation = 0
Minimum injected packet rate = 0 (at node 0)
Average injected packet rate = 0.00283177
Maximum injected packet rate = 0.0116444 (at node 71)
Minimum accepted packet rate = 0 (at node 0)
Average accepted packet rate = 0.00281632
Maximum accepted packet rate = 0.0121778 (at node 66)
Minimum injected flit rate = 0 (at node 0)
Average injected flit rate = 0.00283177
Maximum injected flit rate = 0.0116444 (at node 71)
Minimum accepted flit rate = 0 (at node 0)
Average accepted flit rate = 0.00281632
Maximum accepted flit rate = 0.0121778 (at node 66)
Total number of injected packets = 16311
Total number of injected flits = 16311
Average injected packet length = 1
Total number of accepted packets = 16222
Total number of accepted flits = 16222
Average accepted packet length = 1
Total in-flight flits = 500 (500 measured)
class 0 latency change    = 0.0187686
class 0 throughput change = 0.00578689
===== Time: 55000 =====
Class 0:
Minimum packet latency = 62
Average packet latency = 1018.26
Maximum packet latency = 24778
Minimum network latency = 63
Average network latency = 764.781
Maximum network latency = 5991
Slowest packet = 1810
Minimum flit latency = 63
Average flit latency = 766.469
Maximum flit latency = 5991
Slowest flit = 17025
Minimum fragmentation = 0
Average fragmentation = 0
Maximum fragmentation = 0
Minimum injected packet rate = 0 (at node 0)
Average injected packet rate = 0.00282156
Maximum injected packet rate = 0.01156 (at node 71)
Minimum accepted packet rate = 0 (at node 0)
Average accepted packet rate = 0.00281687
Maximum accepted packet rate = 0.0123 (at node 66)
Minimum injected flit rate = 0 (at node 0)
Average injected flit rate = 0.00282156
Maximum injected flit rate = 0.01156 (at node 71)
Minimum accepted flit rate = 0 (at node 0)
Average accepted flit rate = 0.00281687
Maximum accepted flit rate = 0.0123 (at node 66)
Total number of injected packets = 18058
Total number of injected flits = 18058
Average injected packet length = 1
Total number of accepted packets = 18028
Total number of accepted flits = 18028
Average accepted packet length = 1
Total in-flight flits = 454 (454 measured)
class 0 latency change    = 0.0356065
class 0 throughput change = 0.000197224
Draining remaining packets ...
Class 0:
Remaining flits: 13899 13950 13999 14098 14191 14276 14282 14421 14462 14565 [...] (206 flits)
Measured flits: 13899 13950 13999 14098 14191 14276 14282 14421 14462 14565 [...] (206 flits)
Class 0:
Remaining flits: 14421 14604 14758 14835 14886 14931 14960 15063 15080 15116 [...] (166 flits)
Measured flits: 14421 14604 14758 14835 14886 14931 14960 15063 15080 15116 [...] (166 flits)
Class 0:
Remaining flits: 15346 15383 15457 15482 15484 15519 15574 15651 15729 15912 [...] (142 flits)
Measured flits: 15346 15383 15457 15482 15484 15519 15574 15651 15729 15912 [...] (142 flits)
Class 0:
Remaining flits: 16010 16065 16068 16093 16216 16289 16483 16504 16624 16706 [...] (115 flits)
Measured flits: 16010 16065 16068 16093 16216 16289 16483 16504 16624 16706 [...] (115 flits)
Class 0:
Remaining flits: 16706 16841 16934 16942 17027 17031 17033 17069 17085 17093 [...] (96 flits)
Measured flits: 16706 16841 16934 16942 17027 17031 17033 17069 17085 17093 [...] (96 flits)
Class 0:
Remaining flits: 17100 17252 17254 17345 17386 17399 17411 17498 17517 17634 [...] (67 flits)
Measured flits: 17100 17252 17254 17345 17386 17399 17411 17498 17517 17634 [...] (67 flits)
Class 0:
Remaining flits: 17688 18099 18115 18122 18235 18313 18555 18606 18708 18730 [...] (40 flits)
Measured flits: 17688 18099 18115 18122 18235 18313 18555 18606 18708 18730 [...] (40 flits)
Class 0:
Remaining flits: 19018 19253 19314 19336 19358 19397 19399 19432 19466 19477 [...] (18 flits)
Measured flits: 19018 19253 19314 19336 19358 19397 19399 19432 19466 19477 [...] (18 flits)
Class 0:
Remaining flits: 19794 (1 flits)
Measured flits: 19794 (1 flits)
Time taken is 64067 cycles
====== Traffic class 0 ======

Total number of flits generated = 20038, changed lanes = 0
Overall minimum packet latency = 62 (1 samples)
Overall average packet latency = 1138.86 (1 samples)
Overall maximum packet latency = 24778 (1 samples)
Overall minimum network latency = 63 (1 samples)
Overall average network latency = 767.549 (1 samples)
Overall maximum network latency = 5991 (1 samples)
Overall minimum flit latency = 63 (1 samples)
Overall average flit latency = 769.159 (1 samples)
Overall maximum flit latency = 5991 (1 samples)
Overall minimum fragmentation = 0 (1 samples)
Overall average fragmentation = 0 (1 samples)
Overall maximum fragmentation = 0 (1 samples)
Overall minimum injected packet rate = 0 (1 samples)
Overall average injected packet rate = 0.00282156 (1 samples)
Overall maximum injected packet rate = 0.01156 (1 samples)
Overall minimum accepted packet rate = 0 (1 samples)
Overall average accepted packet rate = 0.00281687 (1 samples)
Overall maximum accepted packet rate = 0.0123 (1 samples)
Overall minimum injected flit rate = 0 (1 samples)
Overall average injected flit rate = 0.00282156 (1 samples)
Overall maximum injected flit rate = 0.01156 (1 samples)
Overall minimum accepted flit rate = 0 (1 samples)
Overall average accepted flit rate = 0.00281687 (1 samples)
Overall maximum accepted flit rate = 0.0123 (1 samples)
Overall average injected packet size = 1 (1 samples)
Overall average accepted packet size = 1 (1 samples)
Overall average hops = 8.16579 (1 samples)
Overall throughput of the network (flits/cycle) = 0.40076
Overall throughput of the network (packets/cycle) = 0.40076
CSV Result Header , avgFLat,avgFInjRate
CSV Result ,769.159,0.00282156

Power Report Header, Frequency, Time, StaticIQ, DynamicIQ, StaticVC, DynamicVC, StaticSA, DynamicSA, StaticST, DynamicST, StaticLink, DynamicLink, NoFlits, ePerFlit
Power Report,3.9e+08,64067,0.131875,0.00974069,0.00749762,0.000286256,0.00224928,0.000256779,0.477597,0.00323945,0.0905466,0.00666306,20038,5.98659e-09

*****************************************
Total run time 23.9357
generate:0x7ffdf76f2110
delete:0x7ffdf76f2110
L = 2 K = 8.1 M = 2 N = 1
-----------------------------------------
- OCN Power Summary
- Completion Time:         64067
- Flit Widths:            64
- Channel Wire Power:      0.897618
- Channel Clock Power:     1.46183
- Channel Retiming Power:  0.0111524
- Channel Leakage Power:   0.551082
- Input Read Power:        0.0282034
- Input Write Power:       0.0282034
- Input Leakage Power:     0.113246
- Switch Power:            0.061273
- Switch Control Power:    0.0316648
- Switch Leakage Power:    0.771052
- Output DFF Power:        0.00657333
- Output Clk Power:        0.727126
- Output Control Power:    0.00339238
- Total Power:             4.69241
-----------------------------------------

-----------------------------------------
- OCN Area Summary
- Channel Area:  0.109536
- Switch  Area:  0.241592
- Input  Area:   0.120796
- Output  Area:  0.0201327
- Total Area:    0.492056
-----------------------------------------
CSV Power Result Header , Completion Time, Channel Wire, Channel Clock, Channel Retiming, Channel Leakage, Input Read, Input Write, Input Leakage, Switch Power, Switch Control, Switch Leakage, Output DFF, Output Clk, Output Control
CSV Power Result , 64067, 0.897618, 1.46183, 0.0111524, 0.551082, 0.0282034, 0.0282034, 0.113246, 0.061273, 0.0316648, 0.771052, 0.00657333, 0.727126, 0.00339238
delete:0x7ffdf76f2110
delete:0x7ffdf76f2110
delete:0x7ffdf76f2110
delete:0x7ffdf76f2110
delete:0x7ffdf76f2110
delete:0x7ffdf76f2110
delete:0x7ffdf76f2110
delete:0x7ffdf76f2110
delete:0x7ffdf76f2110
delete:0x7ffdf76f2110
delete:0x7ffdf76f2110
delete:0x7ffdf76f2110
delete:0x7ffdf76f2110
delete:0x7ffdf76f2110
delete:0x7ffdf76f2110
delete:0x7ffdf76f2110
delete:0x7ffdf76f2110
delete:0x7ffdf76f2110
