generate:0x7fff88ff1320
generate:0x7fff88ff13d8
generate:0x7fff88ff1490
generate:0x7fff88ff1548
generate:0x7fff88ff1600
generate:0x7fff88ff16b8
generate:0x7fff88ff1770
generate:0x7fff88ff1828
generate:0x7fff88ff18e0
generate:0x7fff88ff1998
generate:0x7fff88ff1a50
generate:0x7fff88ff1b08
generate:0x7fff88ff1bc0
generate:0x7fff88ff1c78
generate:0x7fff88ff1d30
generate:0x7fff88ff1de8
generate:0x7fff88ff1ea0
generate:0x7fff88ff2010
BEGIN Configuration File: interposer2
//topology
topology = mesh;
k = 8;
n = 2;
type = interposer;
// Routing
routing_function = dor;

// Flow control
num_vcs     = 2;
vc_buf_size = 8;
wait_for_tail_credit = 1;
hold_switch_for_packet = 1;

// Router architecture
vc_allocator = islip;
sw_allocator = islip;
alloc_iters  = 1;

credit_delay   = 0;
routing_delay  = 1;
vc_alloc_delay = 1;
sw_alloc_delay = 1;
st_final_delay = 1;

input_speedup     = 1;
output_speedup    = 1;
internal_speedup  = 1.0;
vc_busy_when_full = 0;


//granulaity
latency_thres=20000.0;
deadlock_warn_timeout=20000;
traceStretch=3;

//gating
doGating=0;
sleepThreshold=40;
breakEvenThreshold=80;



//Syn Traffic
//sim_type=latency;
sim_type=throughput;
traffic=uniform;
packet_size = 1;
sample_period=5000;
warmup_periods=1;
max_samples=11;
injection_rate=0.004;

creditDelays=creditDelays({0,0,0,0,0,0,0,0,0,0,0,0,0,0,0,0,0,0,0,0,0,0,0,0,0,0,0,0,0,0,0,0,0,0,0,0,0,0,0,0,0,0,0,0,0,0,0,0,0,0,0,0,0,0,0,0,0,0,0,0,0,0,0,0}});
routingDelays=routingDelays({15,15,15,15,15,15,15,15,15,15,15,15,15,15,15,15,15,15,15,15,15,15,15,15,15,15,15,15,15,15,15,15,15,15,15,15,15,15,15,15,15,15,15,15,15,15,15,15,15,15,15,15,15,15,15,15,15,15,15,15,15,15,15,15});
vcAllocDelays=vcAllocDelays({15,15,15,15,15,15,15,15,15,15,15,15,15,15,15,15,15,15,15,15,15,15,15,15,15,15,15,15,15,15,15,15,15,15,15,15,15,15,15,15,15,15,15,15,15,15,15,15,15,15,15,15,15,15,15,15,15,15,15,15,15,15,15,15});
swAllocDelays=swAllocDelays({15,15,15,15,15,15,15,15,15,15,15,15,15,15,15,15,15,15,15,15,15,15,15,15,15,15,15,15,15,15,15,15,15,15,15,15,15,15,15,15,15,15,15,15,15,15,15,15,15,15,15,15,15,15,15,15,15,15,15,15,15,15,15,15});
stFinalDelays=stFinalDelays({15,15,15,15,15,15,15,15,15,15,15,15,15,15,15,15,15,15,15,15,15,15,15,15,15,15,15,15,15,15,15,15,15,15,15,15,15,15,15,15,15,15,15,15,15,15,15,15,15,15,15,15,15,15,15,15,15,15,15,15,15,15,15,15});

isAsync=isAsync({0,0,0,0,0,0,0,0,0,0,0,0,0,0,0,0,0,0,0,0,0,0,0,0,0,0,0,0,0,0,0,0,0,0,0,0,0,0,0,0,0,0,0,0,0,0,0,0,0,0,0,0,0,0,0,0,0,0,0,0,0,0,0,0});
isMetaUnstable=isMetaUnstable({0,0,0,0,0,0,0,0,0,0,0,0,0,0,0,0,0,0,0,0,0,0,0,0,0,0,0,0,0,0,0,0,0,0,0,0,0,0,0,0,0,0,0,0,0,0,0,0,0,0,0,0,0,0,0,0,0,0,0,0,0,0,0,0});

creditDelayStdDevs=creditDelayStdDevs({0,0,0,0,0,0,0,0,0,0,0,0,0,0,0,0,0,0,0,0,0,0,0,0,0,0,0,0,0,0,0,0,0,0,0,0,0,0,0,0,0,0,0,0,0,0,0,0,0,0,0,0,0,0,0,0,0,0,0,0,0,0,0,0});
routingDelayStdDevs=routingDelayStdDevs({0,0,0,0,0,0,0,0,0,0,0,0,0,0,0,0,0,0,0,0,0,0,0,0,0,0,0,0,0,0,0,0,0,0,0,0,0,0,0,0,0,0,0,0,0,0,0,0,0,0,0,0,0,0,0,0,0,0,0,0,0,0,0,0});
vcAllocDelayStdDevs=vcAllocDelayStdDevs({0,0,0,0,0,0,0,0,0,0,0,0,0,0,0,0,0,0,0,0,0,0,0,0,0,0,0,0,0,0,0,0,0,0,0,0,0,0,0,0,0,0,0,0,0,0,0,0,0,0,0,0,0,0,0,0,0,0,0,0,0,0,0,0});
swAllocDelayStdDevs=swAllocDelayStdDevs({0,0,0,0,0,0,0,0,0,0,0,0,0,0,0,0,0,0,0,0,0,0,0,0,0,0,0,0,0,0,0,0,0,0,0,0,0,0,0,0,0,0,0,0,0,0,0,0,0,0,0,0,0,0,0,0,0,0,0,0,0,0,0,0});
stFinalDelayStdDevs=stFinalDelayStdDevs({0,0,0,0,0,0,0,0,0,0,0,0,0,0,0,0,0,0,0,0,0,0,0,0,0,0,0,0,0,0,0,0,0,0,0,0,0,0,0,0,0,0,0,0,0,0,0,0,0,0,0,0,0,0,0,0,0,0,0,0,0,0,0,0});

  
swAllocThresholds=swAllocThresholds({1,1,1,1,1,1,1,1,1,1,1,1,1,1,1,1,1,1,1,1,1,1,1,1,1,1,1,1,1,1,1,1,1,1,1,1,1,1,1,1,1,1,1,1,1,1,1,1,1,1,1,1,1,1,1,1,1,1,1,1,1,1,1,1});
swAllocThresholdStdDevs=swAllocThresholdStdDevs({0,0,0,0,0,0,0,0,0,0,0,0,0,0,0,0,0,0,0,0,0,0,0,0,0,0,0,0,0,0,0,0,0,0,0,0,0,0,0,0,0,0,0,0,0,0,0,0,0,0,0,0,0,0,0,0,0,0,0,0,0,0,0,0});
swAllocMetaStableThresholds=swAllocMetaStableThresholds({1,1,1,1,1,1,1,1,1,1,1,1,1,1,1,1,1,1,1,1,1,1,1,1,1,1,1,1,1,1,1,1,1,1,1,1,1,1,1,1,1,1,1,1,1,1,1,1,1,1,1,1,1,1,1,1,1,1,1,1,1,1,1,1});
swAllocMetaStableMaxPenalities=swAllocMetaStableMaxPenalities({0,0,0,0,0,0,0,0,0,0,0,0,0,0,0,0,0,0,0,0,0,0,0,0,0,0,0,0,0,0,0,0,0,0,0,0,0,0,0,0,0,0,0,0,0,0,0,0,0,0,0,0,0,0,0,0,0,0,0,0,0,0,0,0});

END Configuration File: interposer2
BEGIN Configuration File: chiplet16/chip1
//topology
topology = mesh;
k = 2;
n = 2;
type = chip;
start_point = 0;
cnum=1;
// Routing
routing_function = dor;

// Flow control
num_vcs     = 2;
vc_buf_size = 8;
wait_for_tail_credit = 1;
hold_switch_for_packet = 1;

// Router architecture
vc_allocator = islip;
sw_allocator = islip;
alloc_iters  = 1;

credit_delay   = 0;
routing_delay  = 1;
vc_alloc_delay = 1;
sw_alloc_delay = 1;
st_final_delay = 1;

input_speedup     = 1;
output_speedup    = 1;
internal_speedup  = 1.0;
vc_busy_when_full = 0;


//granulaity
latency_thres=20000.0;
deadlock_warn_timeout=20000;
traceStretch=3;

//gating
doGating=0;
sleepThreshold=40;
breakEvenThreshold=80;



//Syn Traffic
sim_type=latency;
traffic=uniform;
packet_size = 1;
sample_period=50000;
warmup_periods=1;
max_samples=12;
injection_rate=0.01;

creditDelays=creditDelays({0,0,0,0});
routingDelays=routingDelays({15,15,15,15});
vcAllocDelays=vcAllocDelays({15,15,15,15});
swAllocDelays=swAllocDelays({15,15,15,15});
stFinalDelays=stFinalDelays({15,15,15,15});

isAsync=isAsync({0,0,0,0});
isMetaUnstable=isMetaUnstable({0,0,0,0});

creditDelayStdDevs=creditDelayStdDevs({0,0,0,0});
routingDelayStdDevs=routingDelayStdDevs({0,0,0,0});
vcAllocDelayStdDevs=vcAllocDelayStdDevs({0,0,0,0});
swAllocDelayStdDevs=swAllocDelayStdDevs({0,0,0,0});
stFinalDelayStdDevs=stFinalDelayStdDevs({0,0,0,0});

  
swAllocThresholds=swAllocThresholds({1,1,1,1});
swAllocThresholdStdDevs=swAllocThresholdStdDevs({0,0,0,0});
swAllocMetaStableThresholds=swAllocMetaStableThresholds({1,1,1,1});
swAllocMetaStableMaxPenalities=swAllocMetaStableMaxPenalities({0,0,0,0});

END Configuration File: chiplet16/chip1
BEGIN Configuration File: chiplet16/chip2
//topology
topology = mesh;
k = 2;
n = 2;
type = chip;
start_point = 2;
cnum=2;
// Routing
routing_function = dor;

// Flow control
num_vcs     = 2;
vc_buf_size = 8;
wait_for_tail_credit = 1;
hold_switch_for_packet = 1;

// Router architecture
vc_allocator = islip;
sw_allocator = islip;
alloc_iters  = 1;

credit_delay   = 0;
routing_delay  = 1;
vc_alloc_delay = 1;
sw_alloc_delay = 1;
st_final_delay = 1;

input_speedup     = 1;
output_speedup    = 1;
internal_speedup  = 1.0;
vc_busy_when_full = 0;


//granulaity
latency_thres=20000.0;
deadlock_warn_timeout=20000;
traceStretch=3;

//gating
doGating=0;
sleepThreshold=40;
breakEvenThreshold=80;



//Syn Traffic
sim_type=latency;
traffic=uniform;
packet_size = 1;
sample_period=50000;
warmup_periods=1;
max_samples=12;
injection_rate=0.01;

creditDelays=creditDelays({0,0,0,0});
routingDelays=routingDelays({15,15,15,15});
vcAllocDelays=vcAllocDelays({15,15,15,15});
swAllocDelays=swAllocDelays({15,15,15,15});
stFinalDelays=stFinalDelays({15,15,15,15});

isAsync=isAsync({0,0,0,0});
isMetaUnstable=isMetaUnstable({0,0,0,0});

creditDelayStdDevs=creditDelayStdDevs({0,0,0,0});
routingDelayStdDevs=routingDelayStdDevs({0,0,0,0});
vcAllocDelayStdDevs=vcAllocDelayStdDevs({0,0,0,0});
swAllocDelayStdDevs=swAllocDelayStdDevs({0,0,0,0});
stFinalDelayStdDevs=stFinalDelayStdDevs({0,0,0,0});

  
swAllocThresholds=swAllocThresholds({1,1,1,1});
swAllocThresholdStdDevs=swAllocThresholdStdDevs({0,0,0,0});
swAllocMetaStableThresholds=swAllocMetaStableThresholds({1,1,1,1});
swAllocMetaStableMaxPenalities=swAllocMetaStableMaxPenalities({0,0,0,0});

END Configuration File: chiplet16/chip2
BEGIN Configuration File: chiplet16/chip3
//topology
topology = mesh;
k = 2;
n = 2;
type = chip;
start_point = 4;
cnum=3;
// Routing
routing_function = dor;

// Flow control
num_vcs     = 2;
vc_buf_size = 8;
wait_for_tail_credit = 1;
hold_switch_for_packet = 1;

// Router architecture
vc_allocator = islip;
sw_allocator = islip;
alloc_iters  = 1;

credit_delay   = 0;
routing_delay  = 1;
vc_alloc_delay = 1;
sw_alloc_delay = 1;
st_final_delay = 1;

input_speedup     = 1;
output_speedup    = 1;
internal_speedup  = 1.0;
vc_busy_when_full = 0;


//granulaity
latency_thres=20000.0;
deadlock_warn_timeout=20000;
traceStretch=3;

//gating
doGating=0;
sleepThreshold=40;
breakEvenThreshold=80;



//Syn Traffic
sim_type=latency;
traffic=uniform;
packet_size = 1;
sample_period=50000;
warmup_periods=1;
max_samples=12;
injection_rate=0.01;

creditDelays=creditDelays({0,0,0,0});
routingDelays=routingDelays({15,15,15,15});
vcAllocDelays=vcAllocDelays({15,15,15,15});
swAllocDelays=swAllocDelays({15,15,15,15});
stFinalDelays=stFinalDelays({15,15,15,15});

isAsync=isAsync({0,0,0,0});
isMetaUnstable=isMetaUnstable({0,0,0,0});

creditDelayStdDevs=creditDelayStdDevs({0,0,0,0});
routingDelayStdDevs=routingDelayStdDevs({0,0,0,0});
vcAllocDelayStdDevs=vcAllocDelayStdDevs({0,0,0,0});
swAllocDelayStdDevs=swAllocDelayStdDevs({0,0,0,0});
stFinalDelayStdDevs=stFinalDelayStdDevs({0,0,0,0});

  
swAllocThresholds=swAllocThresholds({1,1,1,1});
swAllocThresholdStdDevs=swAllocThresholdStdDevs({0,0,0,0});
swAllocMetaStableThresholds=swAllocMetaStableThresholds({1,1,1,1});
swAllocMetaStableMaxPenalities=swAllocMetaStableMaxPenalities({0,0,0,0});

END Configuration File: chiplet16/chip3
BEGIN Configuration File: chiplet16/chip4
//topology
topology = mesh;
k = 2;
n = 2;
type = chip;
start_point = 6;
cnum=4;
// Routing
routing_function = dor;

// Flow control
num_vcs     = 2;
vc_buf_size = 8;
wait_for_tail_credit = 1;
hold_switch_for_packet = 1;

// Router architecture
vc_allocator = islip;
sw_allocator = islip;
alloc_iters  = 1;

credit_delay   = 0;
routing_delay  = 1;
vc_alloc_delay = 1;
sw_alloc_delay = 1;
st_final_delay = 1;

input_speedup     = 1;
output_speedup    = 1;
internal_speedup  = 1.0;
vc_busy_when_full = 0;


//granulaity
latency_thres=20000.0;
deadlock_warn_timeout=20000;
traceStretch=3;

//gating
doGating=0;
sleepThreshold=40;
breakEvenThreshold=80;



//Syn Traffic
sim_type=latency;
traffic=uniform;
packet_size = 1;
sample_period=50000;
warmup_periods=1;
max_samples=12;
injection_rate=0.01;

creditDelays=creditDelays({0,0,0,0});
routingDelays=routingDelays({15,15,15,15});
vcAllocDelays=vcAllocDelays({15,15,15,15});
swAllocDelays=swAllocDelays({15,15,15,15});
stFinalDelays=stFinalDelays({15,15,15,15});

isAsync=isAsync({0,0,0,0});
isMetaUnstable=isMetaUnstable({0,0,0,0});

creditDelayStdDevs=creditDelayStdDevs({0,0,0,0});
routingDelayStdDevs=routingDelayStdDevs({0,0,0,0});
vcAllocDelayStdDevs=vcAllocDelayStdDevs({0,0,0,0});
swAllocDelayStdDevs=swAllocDelayStdDevs({0,0,0,0});
stFinalDelayStdDevs=stFinalDelayStdDevs({0,0,0,0});

  
swAllocThresholds=swAllocThresholds({1,1,1,1});
swAllocThresholdStdDevs=swAllocThresholdStdDevs({0,0,0,0});
swAllocMetaStableThresholds=swAllocMetaStableThresholds({1,1,1,1});
swAllocMetaStableMaxPenalities=swAllocMetaStableMaxPenalities({0,0,0,0});

END Configuration File: chiplet16/chip4
BEGIN Configuration File: chiplet16/chip5
//topology
topology = mesh;
k = 2;
n = 2;
type = chip;
start_point = 8;
cnum=5;
//16
// Routing
routing_function = dor;

// Flow control
num_vcs     = 2;
vc_buf_size = 8;
wait_for_tail_credit = 1;
hold_switch_for_packet = 1;

// Router architecture
vc_allocator = islip;
sw_allocator = islip;
alloc_iters  = 1;

credit_delay   = 1;
routing_delay  = 1;
vc_alloc_delay = 1;
sw_alloc_delay = 1;
st_final_delay = 1;

input_speedup     = 1;
output_speedup    = 1;
internal_speedup  = 1.0;
vc_busy_when_full = 0;


//granulaity
latency_thres=20000.0;
deadlock_warn_timeout=20000;
traceStretch=3;

//gating
doGating=0;
sleepThreshold=40;
breakEvenThreshold=80;



//Syn Traffic
sim_type=latency;
traffic=uniform;
packet_size = 1;
sample_period=50000;
warmup_periods=1;
max_samples=12;
injection_rate=0.01;

creditDelays=creditDelays({0,0,0,0});
routingDelays=routingDelays({15,15,15,15});
vcAllocDelays=vcAllocDelays({15,15,15,15});
swAllocDelays=swAllocDelays({15,15,15,15});
stFinalDelays=stFinalDelays({15,15,15,15});

isAsync=isAsync({0,0,0,0});
isMetaUnstable=isMetaUnstable({0,0,0,0});

creditDelayStdDevs=creditDelayStdDevs({0,0,0,0});
routingDelayStdDevs=routingDelayStdDevs({0,0,0,0});
vcAllocDelayStdDevs=vcAllocDelayStdDevs({0,0,0,0});
swAllocDelayStdDevs=swAllocDelayStdDevs({0,0,0,0});
stFinalDelayStdDevs=stFinalDelayStdDevs({0,0,0,0});

  
swAllocThresholds=swAllocThresholds({1,1,1,1});
swAllocThresholdStdDevs=swAllocThresholdStdDevs({0,0,0,0});
swAllocMetaStableThresholds=swAllocMetaStableThresholds({1,1,1,1});
swAllocMetaStableMaxPenalities=swAllocMetaStableMaxPenalities({0,0,0,0});

END Configuration File: chiplet16/chip5
BEGIN Configuration File: chiplet16/chip6
//topology
topology = mesh;
k = 2;
n = 2;
type = chip;
start_point = 10;
cnum=6;
//18
// Routing
routing_function = dor;

// Flow control
num_vcs     = 2;
vc_buf_size = 8;
wait_for_tail_credit = 1;
hold_switch_for_packet = 1;

// Router architecture
vc_allocator = islip;
sw_allocator = islip;
alloc_iters  = 1;

credit_delay   = 0;
routing_delay  = 1;
vc_alloc_delay = 1;
sw_alloc_delay = 1;
st_final_delay = 1;

input_speedup     = 1;
output_speedup    = 1;
internal_speedup  = 1.0;
vc_busy_when_full = 0;


//granulaity
latency_thres=20000.0;
deadlock_warn_timeout=20000;
traceStretch=3;

//gating
doGating=0;
sleepThreshold=40;
breakEvenThreshold=80;



//Syn Traffic
sim_type=latency;
traffic=uniform;
packet_size = 1;
sample_period=50000;
warmup_periods=1;
max_samples=12;
injection_rate=0.01;

creditDelays=creditDelays({0,0,0,0});
routingDelays=routingDelays({15,15,15,15});
vcAllocDelays=vcAllocDelays({15,15,15,15});
swAllocDelays=swAllocDelays({15,15,15,15});
stFinalDelays=stFinalDelays({15,15,15,15});

isAsync=isAsync({0,0,0,0});
isMetaUnstable=isMetaUnstable({0,0,0,0});

creditDelayStdDevs=creditDelayStdDevs({0,0,0,0});
routingDelayStdDevs=routingDelayStdDevs({0,0,0,0});
vcAllocDelayStdDevs=vcAllocDelayStdDevs({0,0,0,0});
swAllocDelayStdDevs=swAllocDelayStdDevs({0,0,0,0});
stFinalDelayStdDevs=stFinalDelayStdDevs({0,0,0,0});

  
swAllocThresholds=swAllocThresholds({1,1,1,1});
swAllocThresholdStdDevs=swAllocThresholdStdDevs({0,0,0,0});
swAllocMetaStableThresholds=swAllocMetaStableThresholds({1,1,1,1});
swAllocMetaStableMaxPenalities=swAllocMetaStableMaxPenalities({0,0,0,0});

END Configuration File: chiplet16/chip6
BEGIN Configuration File: chiplet16/chip7
//topology
topology = mesh;
k = 2;
n = 2;
type = chip;
start_point = 20;
cnum=7;
// Routing
routing_function = dor;

// Flow control
num_vcs     = 2;
vc_buf_size = 8;
wait_for_tail_credit = 1;
hold_switch_for_packet = 1;

// Router architecture
vc_allocator = islip;
sw_allocator = islip;
alloc_iters  = 1;

credit_delay   = 0;
routing_delay  = 1;
vc_alloc_delay = 1;
sw_alloc_delay = 1;
st_final_delay = 1;

input_speedup     = 1;
output_speedup    = 1;
internal_speedup  = 1.0;
vc_busy_when_full = 0;


//granulaity
latency_thres=20000.0;
deadlock_warn_timeout=20000;
traceStretch=3;

//gating
doGating=0;
sleepThreshold=40;
breakEvenThreshold=80;



//Syn Traffic
sim_type=latency;
traffic=uniform;
packet_size = 1;
sample_period=50000;
warmup_periods=1;
max_samples=12;
injection_rate=0.01;

creditDelays=creditDelays({0,0,0,0});
routingDelays=routingDelays({15,15,15,15});
vcAllocDelays=vcAllocDelays({15,15,15,15});
swAllocDelays=swAllocDelays({15,15,15,15});
stFinalDelays=stFinalDelays({15,15,15,15});

isAsync=isAsync({0,0,0,0});
isMetaUnstable=isMetaUnstable({0,0,0,0});

creditDelayStdDevs=creditDelayStdDevs({0,0,0,0});
routingDelayStdDevs=routingDelayStdDevs({0,0,0,0});
vcAllocDelayStdDevs=vcAllocDelayStdDevs({0,0,0,0});
swAllocDelayStdDevs=swAllocDelayStdDevs({0,0,0,0});
stFinalDelayStdDevs=stFinalDelayStdDevs({0,0,0,0});

  
swAllocThresholds=swAllocThresholds({1,1,1,1});
swAllocThresholdStdDevs=swAllocThresholdStdDevs({0,0,0,0});
swAllocMetaStableThresholds=swAllocMetaStableThresholds({1,1,1,1});
swAllocMetaStableMaxPenalities=swAllocMetaStableMaxPenalities({0,0,0,0});

END Configuration File: chiplet16/chip7
BEGIN Configuration File: chiplet16/chip8
//topology
topology = mesh;
k = 2;
n = 2;
type = chip;
start_point = 22;
cnum=8;
// Routing
routing_function = dor;

// Flow control
num_vcs     = 2;
vc_buf_size = 8;
wait_for_tail_credit = 1;
hold_switch_for_packet = 1;

// Router architecture
vc_allocator = islip;
sw_allocator = islip;
alloc_iters  = 1;

credit_delay   = 0;
routing_delay  = 1;
vc_alloc_delay = 1;
sw_alloc_delay = 1;
st_final_delay = 1;

input_speedup     = 1;
output_speedup    = 1;
internal_speedup  = 1.0;
vc_busy_when_full = 0;


//granulaity
latency_thres=20000.0;
deadlock_warn_timeout=20000;
traceStretch=3;

//gating
doGating=0;
sleepThreshold=40;
breakEvenThreshold=80;



//Syn Traffic
sim_type=latency;
traffic=uniform;
packet_size = 1;
sample_period=50000;
warmup_periods=1;
max_samples=12;
injection_rate=0.01;

creditDelays=creditDelays({0,0,0,0});
routingDelays=routingDelays({15,15,15,15});
vcAllocDelays=vcAllocDelays({15,15,15,15});
swAllocDelays=swAllocDelays({15,15,15,15});
stFinalDelays=stFinalDelays({15,15,15,15});

isAsync=isAsync({0,0,0,0});
isMetaUnstable=isMetaUnstable({0,0,0,0});

creditDelayStdDevs=creditDelayStdDevs({0,0,0,0});
routingDelayStdDevs=routingDelayStdDevs({0,0,0,0});
vcAllocDelayStdDevs=vcAllocDelayStdDevs({0,0,0,0});
swAllocDelayStdDevs=swAllocDelayStdDevs({0,0,0,0});
stFinalDelayStdDevs=stFinalDelayStdDevs({0,0,0,0});

  
swAllocThresholds=swAllocThresholds({1,1,1,1});
swAllocThresholdStdDevs=swAllocThresholdStdDevs({0,0,0,0});
swAllocMetaStableThresholds=swAllocMetaStableThresholds({1,1,1,1});
swAllocMetaStableMaxPenalities=swAllocMetaStableMaxPenalities({0,0,0,0});

END Configuration File: chiplet16/chip8
BEGIN Configuration File: chiplet16/chip9
//topology
topology = mesh;
k = 2;
n = 2;
type = chip;
start_point = 32;
cnum=9;
// Routing
routing_function = dor;

// Flow control
num_vcs     = 2;
vc_buf_size = 8;
wait_for_tail_credit = 1;
hold_switch_for_packet = 1;

// Router architecture
vc_allocator = islip;
sw_allocator = islip;
alloc_iters  = 1;

credit_delay   = 0;
routing_delay  = 1;
vc_alloc_delay = 1;
sw_alloc_delay = 1;
st_final_delay = 1;

input_speedup     = 1;
output_speedup    = 1;
internal_speedup  = 1.0;
vc_busy_when_full = 0;


//granulaity
latency_thres=20000.0;
deadlock_warn_timeout=20000;
traceStretch=3;

//gating
doGating=0;
sleepThreshold=40;
breakEvenThreshold=80;



//Syn Traffic
sim_type=latency;
traffic=uniform;
packet_size = 1;
sample_period=50000;
warmup_periods=1;
max_samples=12;
injection_rate=0.01;

creditDelays=creditDelays({0,0,0,0});
routingDelays=routingDelays({15,15,15,15});
vcAllocDelays=vcAllocDelays({15,15,15,15});
swAllocDelays=swAllocDelays({15,15,15,15});
stFinalDelays=stFinalDelays({15,15,15,15});

isAsync=isAsync({0,0,0,0});
isMetaUnstable=isMetaUnstable({0,0,0,0});

creditDelayStdDevs=creditDelayStdDevs({0,0,0,0});
routingDelayStdDevs=routingDelayStdDevs({0,0,0,0});
vcAllocDelayStdDevs=vcAllocDelayStdDevs({0,0,0,0});
swAllocDelayStdDevs=swAllocDelayStdDevs({0,0,0,0});
stFinalDelayStdDevs=stFinalDelayStdDevs({0,0,0,0});

  
swAllocThresholds=swAllocThresholds({1,1,1,1});
swAllocThresholdStdDevs=swAllocThresholdStdDevs({0,0,0,0});
swAllocMetaStableThresholds=swAllocMetaStableThresholds({1,1,1,1});
swAllocMetaStableMaxPenalities=swAllocMetaStableMaxPenalities({0,0,0,0});

END Configuration File: chiplet16/chip9
BEGIN Configuration File: chiplet16/chip10
//topology
topology = mesh;
k = 2;
n = 2;
type = chip;
start_point = 34;
cnum=10;
// Routing
routing_function = dor;

// Flow control
num_vcs     = 2;
vc_buf_size = 8;
wait_for_tail_credit = 1;
hold_switch_for_packet = 1;

// Router architecture
vc_allocator = islip;
sw_allocator = islip;
alloc_iters  = 1;

credit_delay   = 0;
routing_delay  = 1;
vc_alloc_delay = 1;
sw_alloc_delay = 1;
st_final_delay = 1;

input_speedup     = 1;
output_speedup    = 1;
internal_speedup  = 1.0;
vc_busy_when_full = 0;


//granulaity
latency_thres=20000.0;
deadlock_warn_timeout=20000;
traceStretch=3;

//gating
doGating=0;
sleepThreshold=40;
breakEvenThreshold=80;



//Syn Traffic
sim_type=latency;
traffic=uniform;
packet_size = 1;
sample_period=50000;
warmup_periods=1;
max_samples=12;
injection_rate=0.01;

creditDelays=creditDelays({0,0,0,0});
routingDelays=routingDelays({15,15,15,15});
vcAllocDelays=vcAllocDelays({15,15,15,15});
swAllocDelays=swAllocDelays({15,15,15,15});
stFinalDelays=stFinalDelays({15,15,15,15});

isAsync=isAsync({0,0,0,0});
isMetaUnstable=isMetaUnstable({0,0,0,0});

creditDelayStdDevs=creditDelayStdDevs({0,0,0,0});
routingDelayStdDevs=routingDelayStdDevs({0,0,0,0});
vcAllocDelayStdDevs=vcAllocDelayStdDevs({0,0,0,0});
swAllocDelayStdDevs=swAllocDelayStdDevs({0,0,0,0});
stFinalDelayStdDevs=stFinalDelayStdDevs({0,0,0,0});

  
swAllocThresholds=swAllocThresholds({1,1,1,1});
swAllocThresholdStdDevs=swAllocThresholdStdDevs({0,0,0,0});
swAllocMetaStableThresholds=swAllocMetaStableThresholds({1,1,1,1});
swAllocMetaStableMaxPenalities=swAllocMetaStableMaxPenalities({0,0,0,0});

END Configuration File: chiplet16/chip10
BEGIN Configuration File: chiplet16/chip11
//topology
topology = mesh;
k = 2;
n = 2;
type = chip;
start_point = 36;
cnum=11;
// Routing
routing_function = dor;

// Flow control
num_vcs     = 2;
vc_buf_size = 8;
wait_for_tail_credit = 1;
hold_switch_for_packet = 1;

// Router architecture
vc_allocator = islip;
sw_allocator = islip;
alloc_iters  = 1;

credit_delay   = 0;
routing_delay  = 1;
vc_alloc_delay = 1;
sw_alloc_delay = 1;
st_final_delay = 1;

input_speedup     = 1;
output_speedup    = 1;
internal_speedup  = 1.0;
vc_busy_when_full = 0;


//granulaity
latency_thres=20000.0;
deadlock_warn_timeout=20000;
traceStretch=3;

//gating
doGating=0;
sleepThreshold=40;
breakEvenThreshold=80;



//Syn Traffic
sim_type=latency;
traffic=uniform;
packet_size = 1;
sample_period=50000;
warmup_periods=1;
max_samples=12;
injection_rate=0.01;

creditDelays=creditDelays({0,0,0,0});
routingDelays=routingDelays({15,15,15,15});
vcAllocDelays=vcAllocDelays({15,15,15,15});
swAllocDelays=swAllocDelays({15,15,15,15});
stFinalDelays=stFinalDelays({15,15,15,15});

isAsync=isAsync({0,0,0,0});
isMetaUnstable=isMetaUnstable({0,0,0,0});

creditDelayStdDevs=creditDelayStdDevs({0,0,0,0});
routingDelayStdDevs=routingDelayStdDevs({0,0,0,0});
vcAllocDelayStdDevs=vcAllocDelayStdDevs({0,0,0,0});
swAllocDelayStdDevs=swAllocDelayStdDevs({0,0,0,0});
stFinalDelayStdDevs=stFinalDelayStdDevs({0,0,0,0});

  
swAllocThresholds=swAllocThresholds({1,1,1,1});
swAllocThresholdStdDevs=swAllocThresholdStdDevs({0,0,0,0});
swAllocMetaStableThresholds=swAllocMetaStableThresholds({1,1,1,1});
swAllocMetaStableMaxPenalities=swAllocMetaStableMaxPenalities({0,0,0,0});

END Configuration File: chiplet16/chip11
BEGIN Configuration File: chiplet16/chip12
//topology
topology = mesh;
k = 2;
n = 2;
type = chip;
start_point = 38;
cnum=12;
// Routing
routing_function = dor;

// Flow control
num_vcs     = 2;
vc_buf_size = 8;
wait_for_tail_credit = 1;
hold_switch_for_packet = 1;

// Router architecture
vc_allocator = islip;
sw_allocator = islip;
alloc_iters  = 1;

credit_delay   = 0;
routing_delay  = 1;
vc_alloc_delay = 1;
sw_alloc_delay = 1;
st_final_delay = 1;

input_speedup     = 1;
output_speedup    = 1;
internal_speedup  = 1.0;
vc_busy_when_full = 0;


//granulaity
latency_thres=20000.0;
deadlock_warn_timeout=20000;
traceStretch=3;

//gating
doGating=0;
sleepThreshold=40;
breakEvenThreshold=80;



//Syn Traffic
sim_type=latency;
traffic=uniform;
packet_size = 1;
sample_period=50000;
warmup_periods=1;
max_samples=12;
injection_rate=0.01;

creditDelays=creditDelays({0,0,0,0});
routingDelays=routingDelays({15,15,15,15});
vcAllocDelays=vcAllocDelays({15,15,15,15});
swAllocDelays=swAllocDelays({15,15,15,15});
stFinalDelays=stFinalDelays({15,15,15,15});

isAsync=isAsync({0,0,0,0});
isMetaUnstable=isMetaUnstable({0,0,0,0});

creditDelayStdDevs=creditDelayStdDevs({0,0,0,0});
routingDelayStdDevs=routingDelayStdDevs({0,0,0,0});
vcAllocDelayStdDevs=vcAllocDelayStdDevs({0,0,0,0});
swAllocDelayStdDevs=swAllocDelayStdDevs({0,0,0,0});
stFinalDelayStdDevs=stFinalDelayStdDevs({0,0,0,0});

  
swAllocThresholds=swAllocThresholds({1,1,1,1});
swAllocThresholdStdDevs=swAllocThresholdStdDevs({0,0,0,0});
swAllocMetaStableThresholds=swAllocMetaStableThresholds({1,1,1,1});
swAllocMetaStableMaxPenalities=swAllocMetaStableMaxPenalities({0,0,0,0});

END Configuration File: chiplet16/chip12
BEGIN Configuration File: chiplet16/chip13
//topology
topology = mesh;
k = 2;
n = 2;
type = chip;
start_point = 48;
cnum=13;
// Routing
routing_function = dor;

// Flow control
num_vcs     = 2;
vc_buf_size = 8;
wait_for_tail_credit = 1;
hold_switch_for_packet = 1;

// Router architecture
vc_allocator = islip;
sw_allocator = islip;
alloc_iters  = 1;

credit_delay   = 0;
routing_delay  = 1;
vc_alloc_delay = 1;
sw_alloc_delay = 1;
st_final_delay = 1;

input_speedup     = 1;
output_speedup    = 1;
internal_speedup  = 1.0;
vc_busy_when_full = 0;


//granulaity
latency_thres=20000.0;
deadlock_warn_timeout=20000;
traceStretch=3;

//gating
doGating=0;
sleepThreshold=40;
breakEvenThreshold=80;



//Syn Traffic
sim_type=latency;
traffic=uniform;
packet_size = 1;
sample_period=50000;
warmup_periods=1;
max_samples=12;
injection_rate=0.01;

creditDelays=creditDelays({0,0,0,0});
routingDelays=routingDelays({15,15,15,15});
vcAllocDelays=vcAllocDelays({15,15,15,15});
swAllocDelays=swAllocDelays({15,15,15,15});
stFinalDelays=stFinalDelays({15,15,15,15});

isAsync=isAsync({0,0,0,0});
isMetaUnstable=isMetaUnstable({0,0,0,0});

creditDelayStdDevs=creditDelayStdDevs({0,0,0,0});
routingDelayStdDevs=routingDelayStdDevs({0,0,0,0});
vcAllocDelayStdDevs=vcAllocDelayStdDevs({0,0,0,0});
swAllocDelayStdDevs=swAllocDelayStdDevs({0,0,0,0});
stFinalDelayStdDevs=stFinalDelayStdDevs({0,0,0,0});

  
swAllocThresholds=swAllocThresholds({1,1,1,1});
swAllocThresholdStdDevs=swAllocThresholdStdDevs({0,0,0,0});
swAllocMetaStableThresholds=swAllocMetaStableThresholds({1,1,1,1});
swAllocMetaStableMaxPenalities=swAllocMetaStableMaxPenalities({0,0,0,0});

END Configuration File: chiplet16/chip13
BEGIN Configuration File: chiplet16/chip14
//topology
topology = mesh;
k = 2;
n = 2;
type = chip;
start_point = 50;
cnum=14;
// Routing
routing_function = dor;

// Flow control
num_vcs     = 2;
vc_buf_size = 8;
wait_for_tail_credit = 1;
hold_switch_for_packet = 1;

// Router architecture
vc_allocator = islip;
sw_allocator = islip;
alloc_iters  = 1;

credit_delay   = 0;
routing_delay  = 1;
vc_alloc_delay = 1;
sw_alloc_delay = 1;
st_final_delay = 1;

input_speedup     = 1;
output_speedup    = 1;
internal_speedup  = 1.0;
vc_busy_when_full = 0;


//granulaity
latency_thres=20000.0;
deadlock_warn_timeout=20000;
traceStretch=3;

//gating
doGating=0;
sleepThreshold=40;
breakEvenThreshold=80;



//Syn Traffic
sim_type=latency;
traffic=uniform;
packet_size = 1;
sample_period=50000;
warmup_periods=1;
max_samples=12;
injection_rate=0.01;

creditDelays=creditDelays({0,0,0,0});
routingDelays=routingDelays({15,15,15,15});
vcAllocDelays=vcAllocDelays({15,15,15,15});
swAllocDelays=swAllocDelays({15,15,15,15});
stFinalDelays=stFinalDelays({15,15,15,15});

isAsync=isAsync({0,0,0,0});
isMetaUnstable=isMetaUnstable({0,0,0,0});

creditDelayStdDevs=creditDelayStdDevs({0,0,0,0});
routingDelayStdDevs=routingDelayStdDevs({0,0,0,0});
vcAllocDelayStdDevs=vcAllocDelayStdDevs({0,0,0,0});
swAllocDelayStdDevs=swAllocDelayStdDevs({0,0,0,0});
stFinalDelayStdDevs=stFinalDelayStdDevs({0,0,0,0});

  
swAllocThresholds=swAllocThresholds({1,1,1,1});
swAllocThresholdStdDevs=swAllocThresholdStdDevs({0,0,0,0});
swAllocMetaStableThresholds=swAllocMetaStableThresholds({1,1,1,1});
swAllocMetaStableMaxPenalities=swAllocMetaStableMaxPenalities({0,0,0,0});

END Configuration File: chiplet16/chip14
BEGIN Configuration File: chiplet16/chip15
//topology
topology = mesh;
k = 2;
n = 2;
type = chip;
start_point = 52;
cnum=15;
// Routing
routing_function = dor;

// Flow control
num_vcs     = 2;
vc_buf_size = 8;
wait_for_tail_credit = 1;
hold_switch_for_packet = 1;

// Router architecture
vc_allocator = islip;
sw_allocator = islip;
alloc_iters  = 1;

credit_delay   = 0;
routing_delay  = 1;
vc_alloc_delay = 1;
sw_alloc_delay = 1;
st_final_delay = 1;

input_speedup     = 1;
output_speedup    = 1;
internal_speedup  = 1.0;
vc_busy_when_full = 0;


//granulaity
latency_thres=20000.0;
deadlock_warn_timeout=20000;
traceStretch=3;

//gating
doGating=0;
sleepThreshold=40;
breakEvenThreshold=80;



//Syn Traffic
sim_type=latency;
traffic=uniform;
packet_size = 1;
sample_period=50000;
warmup_periods=1;
max_samples=12;
injection_rate=0.01;

creditDelays=creditDelays({0,0,0,0});
routingDelays=routingDelays({15,15,15,15});
vcAllocDelays=vcAllocDelays({15,15,15,15});
swAllocDelays=swAllocDelays({15,15,15,15});
stFinalDelays=stFinalDelays({15,15,15,15});

isAsync=isAsync({0,0,0,0});
isMetaUnstable=isMetaUnstable({0,0,0,0});

creditDelayStdDevs=creditDelayStdDevs({0,0,0,0});
routingDelayStdDevs=routingDelayStdDevs({0,0,0,0});
vcAllocDelayStdDevs=vcAllocDelayStdDevs({0,0,0,0});
swAllocDelayStdDevs=swAllocDelayStdDevs({0,0,0,0});
stFinalDelayStdDevs=stFinalDelayStdDevs({0,0,0,0});

  
swAllocThresholds=swAllocThresholds({1,1,1,1});
swAllocThresholdStdDevs=swAllocThresholdStdDevs({0,0,0,0});
swAllocMetaStableThresholds=swAllocMetaStableThresholds({1,1,1,1});
swAllocMetaStableMaxPenalities=swAllocMetaStableMaxPenalities({0,0,0,0});

END Configuration File: chiplet16/chip15
BEGIN Configuration File: chiplet16/chip16
//topology
topology = mesh;
k = 2;
n = 2;
type = chip;
start_point = 54;
cnum=16;
// Routing
routing_function = dor;

// Flow control
num_vcs     = 2;
vc_buf_size = 8;
wait_for_tail_credit = 1;
hold_switch_for_packet = 1;

// Router architecture
vc_allocator = islip;
sw_allocator = islip;
alloc_iters  = 1;

credit_delay   = 0;
routing_delay  = 1;
vc_alloc_delay = 1;
sw_alloc_delay = 1;
st_final_delay = 1;

input_speedup     = 1;
output_speedup    = 1;
internal_speedup  = 1.0;
vc_busy_when_full = 0;


//granulaity
latency_thres=20000.0;
deadlock_warn_timeout=20000;
traceStretch=3;

//gating
doGating=0;
sleepThreshold=40;
breakEvenThreshold=80;



//Syn Traffic
sim_type=latency;
traffic=uniform;
packet_size = 1;
sample_period=50000;
warmup_periods=1;
max_samples=12;
injection_rate=0.01;

creditDelays=creditDelays({0,0,0,0});
routingDelays=routingDelays({15,15,15,15});
vcAllocDelays=vcAllocDelays({15,15,15,15});
swAllocDelays=swAllocDelays({15,15,15,15});
stFinalDelays=stFinalDelays({15,15,15,15});

isAsync=isAsync({0,0,0,0});
isMetaUnstable=isMetaUnstable({0,0,0,0});

creditDelayStdDevs=creditDelayStdDevs({0,0,0,0});
routingDelayStdDevs=routingDelayStdDevs({0,0,0,0});
vcAllocDelayStdDevs=vcAllocDelayStdDevs({0,0,0,0});
swAllocDelayStdDevs=swAllocDelayStdDevs({0,0,0,0});
stFinalDelayStdDevs=stFinalDelayStdDevs({0,0,0,0});

  
swAllocThresholds=swAllocThresholds({1,1,1,1});
swAllocThresholdStdDevs=swAllocThresholdStdDevs({0,0,0,0});
swAllocMetaStableThresholds=swAllocMetaStableThresholds({1,1,1,1});
swAllocMetaStableMaxPenalities=swAllocMetaStableMaxPenalities({0,0,0,0});

END Configuration File: chiplet16/chip16
rid:0 add output _25chan1
rid:0 add input _25chan0
rid:1 add output _25chan3
rid:1 add input _25chan2
rid:2 add output _25chan9
rid:2 add input _25chan8
rid:3 add output _25chan11
rid:3 add input _25chan10
rid:4 add output _25chan17
rid:4 add input _25chan16
rid:5 add output _25chan19
rid:5 add input _25chan18
rid:6 add output _25chan25
rid:6 add input _25chan24
rid:7 add output _25chan27
rid:7 add input _25chan26
rid:8 add output _25chan5
rid:8 add input _25chan4
rid:9 add output _25chan7
rid:9 add input _25chan6
rid:10 add output _25chan13
rid:10 add input _25chan12
rid:11 add output _25chan15
rid:11 add input _25chan14
rid:12 add output _25chan21
rid:12 add input _25chan20
rid:13 add output _25chan23
rid:13 add input _25chan22
rid:14 add output _25chan29
rid:14 add input _25chan28
rid:15 add output _25chan31
rid:15 add input _25chan30
rid:16 add output _25chan37
rid:16 add input _25chan36
rid:17 add output _25chan39
rid:17 add input _25chan38
rid:18 add output _25chan45
rid:18 add input _25chan44
rid:19 add output _25chan47
rid:19 add input _25chan46
rid:20 add output _25chan49
rid:20 add input _25chan48
rid:21 add output _25chan51
rid:21 add input _25chan50
rid:22 add output _25chan57
rid:22 add input _25chan56
rid:23 add output _25chan59
rid:23 add input _25chan58
rid:24 add uselessoutput chan256
rid:25 add uselessoutput chan256
rid:26 add uselessoutput chan256
rid:27 add uselessoutput chan256
rid:28 add output _25chan53
rid:28 add input _25chan52
rid:29 add output _25chan55
rid:29 add input _25chan54
rid:30 add output _25chan61
rid:30 add input _25chan60
rid:31 add output _25chan63
rid:31 add input _25chan62
rid:32 add output _25chan65
rid:32 add input _25chan64
rid:33 add output _25chan67
rid:33 add input _25chan66
rid:34 add output _25chan73
rid:34 add input _25chan72
rid:35 add output _25chan75
rid:35 add input _25chan74
rid:36 add output _25chan81
rid:36 add input _25chan80
rid:37 add output _25chan83
rid:37 add input _25chan82
rid:38 add output _25chan89
rid:38 add input _25chan88
rid:39 add output _25chan91
rid:39 add input _25chan90
rid:40 add output _25chan69
rid:40 add input _25chan68
rid:41 add output _25chan71
rid:41 add input _25chan70
rid:42 add output _25chan77
rid:42 add input _25chan76
rid:43 add output _25chan79
rid:43 add input _25chan78
rid:44 add output _25chan85
rid:44 add input _25chan84
rid:45 add output _25chan87
rid:45 add input _25chan86
rid:46 add output _25chan93
rid:46 add input _25chan92
rid:47 add output _25chan95
rid:47 add input _25chan94
rid:48 add output _25chan97
rid:48 add input _25chan96
rid:49 add output _25chan99
rid:49 add input _25chan98
rid:50 add output _25chan105
rid:50 add input _25chan104
rid:51 add output _25chan107
rid:51 add input _25chan106
rid:52 add output _25chan113
rid:52 add input _25chan112
rid:53 add output _25chan115
rid:53 add input _25chan114
rid:54 add output _25chan121
rid:54 add input _25chan120
rid:55 add output _25chan123
rid:55 add input _25chan122
rid:56 add output _25chan101
rid:56 add input _25chan100
rid:57 add output _25chan103
rid:57 add input _25chan102
rid:58 add output _25chan109
rid:58 add input _25chan108
rid:59 add output _25chan111
rid:59 add input _25chan110
rid:60 add output _25chan117
rid:60 add input _25chan116
rid:61 add output _25chan119
rid:61 add input _25chan118
rid:62 add output _25chan125
rid:62 add input _25chan124
rid:63 add output _25chan127
rid:63 add input _25chan126
rid:0 add output _25chan0
rid:0 add input _25chan1
rid:1 add output _25chan2
rid:1 add input _25chan3
rid:2 add output _25chan4
rid:2 add input _25chan5
rid:3 add output _25chan6
rid:3 add input _25chan7
rid:0 add output _25chan8
rid:0 add input _25chan9
rid:1 add output _25chan10
rid:1 add input _25chan11
rid:2 add output _25chan12
rid:2 add input _25chan13
rid:3 add output _25chan14
rid:3 add input _25chan15
rid:0 add output _25chan16
rid:0 add input _25chan17
rid:1 add output _25chan18
rid:1 add input _25chan19
rid:2 add output _25chan20
rid:2 add input _25chan21
rid:3 add output _25chan22
rid:3 add input _25chan23
rid:0 add output _25chan24
rid:0 add input _25chan25
rid:1 add output _25chan26
rid:1 add input _25chan27
rid:2 add output _25chan28
rid:2 add input _25chan29
rid:3 add output _25chan30
rid:3 add input _25chan31
rid:0 add output _25chan32
rid:0 add input _25chan33
rid:1 add output _25chan34
rid:1 add input _25chan35
rid:2 add output _25chan36
rid:2 add input _25chan37
rid:3 add output _25chan38
rid:3 add input _25chan39
rid:0 add output _25chan40
rid:0 add input _25chan41
rid:1 add output _25chan42
rid:1 add input _25chan43
rid:2 add output _25chan44
rid:2 add input _25chan45
rid:3 add output _25chan46
rid:3 add input _25chan47
rid:0 add output _25chan48
rid:0 add input _25chan49
rid:1 add output _25chan50
rid:1 add input _25chan51
rid:2 add output _25chan52
rid:2 add input _25chan53
rid:3 add output _25chan54
rid:3 add input _25chan55
rid:0 add output _25chan56
rid:0 add input _25chan57
rid:1 add output _25chan58
rid:1 add input _25chan59
rid:2 add output _25chan60
rid:2 add input _25chan61
rid:3 add output _25chan62
rid:3 add input _25chan63
rid:0 add output _25chan64
rid:0 add input _25chan65
rid:1 add output _25chan66
rid:1 add input _25chan67
rid:2 add output _25chan68
rid:2 add input _25chan69
rid:3 add output _25chan70
rid:3 add input _25chan71
rid:0 add output _25chan72
rid:0 add input _25chan73
rid:1 add output _25chan74
rid:1 add input _25chan75
rid:2 add output _25chan76
rid:2 add input _25chan77
rid:3 add output _25chan78
rid:3 add input _25chan79
rid:0 add output _25chan80
rid:0 add input _25chan81
rid:1 add output _25chan82
rid:1 add input _25chan83
rid:2 add output _25chan84
rid:2 add input _25chan85
rid:3 add output _25chan86
rid:3 add input _25chan87
rid:0 add output _25chan88
rid:0 add input _25chan89
rid:1 add output _25chan90
rid:1 add input _25chan91
rid:2 add output _25chan92
rid:2 add input _25chan93
rid:3 add output _25chan94
rid:3 add input _25chan95
rid:0 add output _25chan96
rid:0 add input _25chan97
rid:1 add output _25chan98
rid:1 add input _25chan99
rid:2 add output _25chan100
rid:2 add input _25chan101
rid:3 add output _25chan102
rid:3 add input _25chan103
rid:0 add output _25chan104
rid:0 add input _25chan105
rid:1 add output _25chan106
rid:1 add input _25chan107
rid:2 add output _25chan108
rid:2 add input _25chan109
rid:3 add output _25chan110
rid:3 add input _25chan111
rid:0 add output _25chan112
rid:0 add input _25chan113
rid:1 add output _25chan114
rid:1 add input _25chan115
rid:2 add output _25chan116
rid:2 add input _25chan117
rid:3 add output _25chan118
rid:3 add input _25chan119
rid:0 add output _25chan120
rid:0 add input _25chan121
rid:1 add output _25chan122
rid:1 add input _25chan123
rid:2 add output _25chan124
rid:2 add input _25chan125
rid:3 add output _25chan126
rid:3 add input _25chan127

Tick: 0M
===== Time: 5000 =====
Class 0:
Minimum packet latency = 62
Average packet latency = 563.451
Maximum packet latency = 2417
Minimum network latency = 63
Average network latency = 557.405
Maximum network latency = 2418
Slowest packet = 645
Minimum flit latency = 63
Average flit latency = 557.405
Maximum flit latency = 2418
Slowest flit = 645
Minimum fragmentation = 0
Average fragmentation = 0
Maximum fragmentation = 0
Minimum injected packet rate = 0 (at node 0)
Average injected packet rate = 0.00192812
Maximum injected packet rate = 0.0094 (at node 71)
Minimum accepted packet rate = 0 (at node 0)
Average accepted packet rate = 0.00172344
Maximum accepted packet rate = 0.008 (at node 71)
Minimum injected flit rate = 0 (at node 0)
Average injected flit rate = 0.00192812
Maximum injected flit rate = 0.0094 (at node 71)
Minimum accepted flit rate = 0 (at node 0)
Average accepted flit rate = 0.00172344
Maximum accepted flit rate = 0.008 (at node 71)
Total number of injected packets = 1234
Total number of injected flits = 1234
Average injected packet length = 1
Total number of accepted packets = 1103
Total number of accepted flits = 1103
Average accepted packet length = 1
Total in-flight flits = 134 (0 measured)
class 0 latency change    = 1
class 0 throughput change = 1
Warmed up ...Time used is 5000 cycles
===== Time: 10000 =====
Class 0:
Minimum packet latency = 62
Average packet latency = 570.618
Maximum packet latency = 2901
Minimum network latency = 63
Average network latency = 550.502
Maximum network latency = 1355
Slowest packet = 1237
Minimum flit latency = 63
Average flit latency = 562.871
Maximum flit latency = 2574
Slowest flit = 616
Minimum fragmentation = 0
Average fragmentation = 0
Maximum fragmentation = 0
Minimum injected packet rate = 0 (at node 0)
Average injected packet rate = 0.00201719
Maximum injected packet rate = 0.0098 (at node 66)
Minimum accepted packet rate = 0 (at node 0)
Average accepted packet rate = 0.00200156
Maximum accepted packet rate = 0.0102 (at node 70)
Minimum injected flit rate = 0 (at node 0)
Average injected flit rate = 0.00201719
Maximum injected flit rate = 0.0098 (at node 66)
Minimum accepted flit rate = 0 (at node 0)
Average accepted flit rate = 0.00200156
Maximum accepted flit rate = 0.0102 (at node 70)
Total number of injected packets = 1291
Total number of injected flits = 1291
Average injected packet length = 1
Total number of accepted packets = 1281
Total number of accepted flits = 1281
Average accepted packet length = 1
Total in-flight flits = 141 (141 measured)
class 0 latency change    = 0.012561
class 0 throughput change = 0.138954
===== Time: 15000 =====
Class 0:
Minimum packet latency = 62
Average packet latency = 580.399
Maximum packet latency = 2901
Minimum network latency = 63
Average network latency = 566.229
Maximum network latency = 2436
Slowest packet = 1237
Minimum flit latency = 63
Average flit latency = 571.665
Maximum flit latency = 2574
Slowest flit = 616
Minimum fragmentation = 0
Average fragmentation = 0
Maximum fragmentation = 0
Minimum injected packet rate = 0 (at node 0)
Average injected packet rate = 0.00197578
Maximum injected packet rate = 0.0093 (at node 71)
Minimum accepted packet rate = 0 (at node 0)
Average accepted packet rate = 0.00197422
Maximum accepted packet rate = 0.0083 (at node 70)
Minimum injected flit rate = 0 (at node 0)
Average injected flit rate = 0.00197578
Maximum injected flit rate = 0.0093 (at node 71)
Minimum accepted flit rate = 0 (at node 0)
Average accepted flit rate = 0.00197422
Maximum accepted flit rate = 0.0083 (at node 70)
Total number of injected packets = 2529
Total number of injected flits = 2529
Average injected packet length = 1
Total number of accepted packets = 2527
Total number of accepted flits = 2527
Average accepted packet length = 1
Total in-flight flits = 137 (137 measured)
class 0 latency change    = 0.0168521
class 0 throughput change = 0.0138504
===== Time: 20000 =====
Class 0:
Minimum packet latency = 62
Average packet latency = 602.232
Maximum packet latency = 4333
Minimum network latency = 63
Average network latency = 571.086
Maximum network latency = 2436
Slowest packet = 1237
Minimum flit latency = 63
Average flit latency = 574.578
Maximum flit latency = 2574
Slowest flit = 616
Minimum fragmentation = 0
Average fragmentation = 0
Maximum fragmentation = 0
Minimum injected packet rate = 0 (at node 0)
Average injected packet rate = 0.00196771
Maximum injected packet rate = 0.00846667 (at node 71)
Minimum accepted packet rate = 0 (at node 0)
Average accepted packet rate = 0.00195208
Maximum accepted packet rate = 0.00806667 (at node 66)
Minimum injected flit rate = 0 (at node 0)
Average injected flit rate = 0.00196771
Maximum injected flit rate = 0.00846667 (at node 71)
Minimum accepted flit rate = 0 (at node 0)
Average accepted flit rate = 0.00195208
Maximum accepted flit rate = 0.00806667 (at node 66)
Total number of injected packets = 3778
Total number of injected flits = 3778
Average injected packet length = 1
Total number of accepted packets = 3748
Total number of accepted flits = 3748
Average accepted packet length = 1
Total in-flight flits = 170 (170 measured)
class 0 latency change    = 0.0362527
class 0 throughput change = 0.0113394
===== Time: 25000 =====
Class 0:
Minimum packet latency = 62
Average packet latency = 616.956
Maximum packet latency = 4862
Minimum network latency = 63
Average network latency = 572.567
Maximum network latency = 2436
Slowest packet = 1237
Minimum flit latency = 63
Average flit latency = 575.126
Maximum flit latency = 2574
Slowest flit = 616
Minimum fragmentation = 0
Average fragmentation = 0
Maximum fragmentation = 0
Minimum injected packet rate = 0 (at node 0)
Average injected packet rate = 0.00197734
Maximum injected packet rate = 0.00855 (at node 71)
Minimum accepted packet rate = 0 (at node 0)
Average accepted packet rate = 0.00196719
Maximum accepted packet rate = 0.0082 (at node 66)
Minimum injected flit rate = 0 (at node 0)
Average injected flit rate = 0.00197734
Maximum injected flit rate = 0.00855 (at node 71)
Minimum accepted flit rate = 0 (at node 0)
Average accepted flit rate = 0.00196719
Maximum accepted flit rate = 0.0082 (at node 66)
Total number of injected packets = 5062
Total number of injected flits = 5062
Average injected packet length = 1
Total number of accepted packets = 5036
Total number of accepted flits = 5036
Average accepted packet length = 1
Total in-flight flits = 159 (159 measured)
class 0 latency change    = 0.0238661
class 0 throughput change = 0.00767805
===== Time: 30000 =====
Class 0:
Minimum packet latency = 62
Average packet latency = 619.794
Maximum packet latency = 4862
Minimum network latency = 63
Average network latency = 577.698
Maximum network latency = 2645
Slowest packet = 1237
Minimum flit latency = 63
Average flit latency = 579.621
Maximum flit latency = 2645
Slowest flit = 6662
Minimum fragmentation = 0
Average fragmentation = 0
Maximum fragmentation = 0
Minimum injected packet rate = 0 (at node 0)
Average injected packet rate = 0.00198844
Maximum injected packet rate = 0.00888 (at node 71)
Minimum accepted packet rate = 0 (at node 0)
Average accepted packet rate = 0.00198219
Maximum accepted packet rate = 0.0084 (at node 66)
Minimum injected flit rate = 0 (at node 0)
Average injected flit rate = 0.00198844
Maximum injected flit rate = 0.00888 (at node 71)
Minimum accepted flit rate = 0 (at node 0)
Average accepted flit rate = 0.00198219
Maximum accepted flit rate = 0.0084 (at node 66)
Total number of injected packets = 6363
Total number of injected flits = 6363
Average injected packet length = 1
Total number of accepted packets = 6343
Total number of accepted flits = 6343
Average accepted packet length = 1
Total in-flight flits = 158 (158 measured)
class 0 latency change    = 0.00457854
class 0 throughput change = 0.0075674
===== Time: 35000 =====
Class 0:
Minimum packet latency = 62
Average packet latency = 622.052
Maximum packet latency = 5194
Minimum network latency = 63
Average network latency = 581.024
Maximum network latency = 2682
Slowest packet = 1237
Minimum flit latency = 63
Average flit latency = 582.565
Maximum flit latency = 2682
Slowest flit = 6935
Minimum fragmentation = 0
Average fragmentation = 0
Maximum fragmentation = 0
Minimum injected packet rate = 0 (at node 0)
Average injected packet rate = 0.00199036
Maximum injected packet rate = 0.00883333 (at node 71)
Minimum accepted packet rate = 0 (at node 0)
Average accepted packet rate = 0.00198672
Maximum accepted packet rate = 0.00836667 (at node 66)
Minimum injected flit rate = 0 (at node 0)
Average injected flit rate = 0.00199036
Maximum injected flit rate = 0.00883333 (at node 71)
Minimum accepted flit rate = 0 (at node 0)
Average accepted flit rate = 0.00198672
Maximum accepted flit rate = 0.00836667 (at node 66)
Total number of injected packets = 7643
Total number of injected flits = 7643
Average injected packet length = 1
Total number of accepted packets = 7629
Total number of accepted flits = 7629
Average accepted packet length = 1
Total in-flight flits = 146 (146 measured)
class 0 latency change    = 0.00363112
class 0 throughput change = 0.00228077
===== Time: 40000 =====
Class 0:
Minimum packet latency = 62
Average packet latency = 630.534
Maximum packet latency = 6524
Minimum network latency = 63
Average network latency = 581.428
Maximum network latency = 2682
Slowest packet = 1237
Minimum flit latency = 63
Average flit latency = 582.74
Maximum flit latency = 2682
Slowest flit = 6935
Minimum fragmentation = 0
Average fragmentation = 0
Maximum fragmentation = 0
Minimum injected packet rate = 0 (at node 0)
Average injected packet rate = 0.00199397
Maximum injected packet rate = 0.00854286 (at node 71)
Minimum accepted packet rate = 0 (at node 0)
Average accepted packet rate = 0.00199085
Maximum accepted packet rate = 0.00845714 (at node 66)
Minimum injected flit rate = 0 (at node 0)
Average injected flit rate = 0.00199397
Maximum injected flit rate = 0.00854286 (at node 71)
Minimum accepted flit rate = 0 (at node 0)
Average accepted flit rate = 0.00199085
Maximum accepted flit rate = 0.00845714 (at node 66)
Total number of injected packets = 8933
Total number of injected flits = 8933
Average injected packet length = 1
Total number of accepted packets = 8919
Total number of accepted flits = 8919
Average accepted packet length = 1
Total in-flight flits = 149 (149 measured)
class 0 latency change    = 0.0134519
class 0 throughput change = 0.00207422
===== Time: 45000 =====
Class 0:
Minimum packet latency = 62
Average packet latency = 637.854
Maximum packet latency = 6524
Minimum network latency = 63
Average network latency = 582.132
Maximum network latency = 2682
Slowest packet = 1237
Minimum flit latency = 63
Average flit latency = 583.271
Maximum flit latency = 2682
Slowest flit = 6935
Minimum fragmentation = 0
Average fragmentation = 0
Maximum fragmentation = 0
Minimum injected packet rate = 0 (at node 0)
Average injected packet rate = 0.00198926
Maximum injected packet rate = 0.008325 (at node 71)
Minimum accepted packet rate = 0 (at node 0)
Average accepted packet rate = 0.00198906
Maximum accepted packet rate = 0.0084 (at node 66)
Minimum injected flit rate = 0 (at node 0)
Average injected flit rate = 0.00198926
Maximum injected flit rate = 0.008325 (at node 71)
Minimum accepted flit rate = 0 (at node 0)
Average accepted flit rate = 0.00198906
Maximum accepted flit rate = 0.0084 (at node 66)
Total number of injected packets = 10185
Total number of injected flits = 10185
Average injected packet length = 1
Total number of accepted packets = 10184
Total number of accepted flits = 10184
Average accepted packet length = 1
Total in-flight flits = 134 (134 measured)
class 0 latency change    = 0.0114757
class 0 throughput change = 0.000897767
===== Time: 50000 =====
Class 0:
Minimum packet latency = 62
Average packet latency = 640.183
Maximum packet latency = 6524
Minimum network latency = 63
Average network latency = 581.304
Maximum network latency = 2682
Slowest packet = 1237
Minimum flit latency = 63
Average flit latency = 582.324
Maximum flit latency = 2682
Slowest flit = 6935
Minimum fragmentation = 0
Average fragmentation = 0
Maximum fragmentation = 0
Minimum injected packet rate = 0 (at node 0)
Average injected packet rate = 0.00199479
Maximum injected packet rate = 0.00824444 (at node 71)
Minimum accepted packet rate = 0 (at node 0)
Average accepted packet rate = 0.00199427
Maximum accepted packet rate = 0.0084 (at node 66)
Minimum injected flit rate = 0 (at node 0)
Average injected flit rate = 0.00199479
Maximum injected flit rate = 0.00824444 (at node 71)
Minimum accepted flit rate = 0 (at node 0)
Average accepted flit rate = 0.00199427
Maximum accepted flit rate = 0.0084 (at node 66)
Total number of injected packets = 11490
Total number of injected flits = 11490
Average injected packet length = 1
Total number of accepted packets = 11487
Total number of accepted flits = 11487
Average accepted packet length = 1
Total in-flight flits = 136 (136 measured)
class 0 latency change    = 0.00363801
class 0 throughput change = 0.00261165
===== Time: 55000 =====
Class 0:
Minimum packet latency = 62
Average packet latency = 638.885
Maximum packet latency = 6524
Minimum network latency = 63
Average network latency = 581.746
Maximum network latency = 2682
Slowest packet = 1237
Minimum flit latency = 63
Average flit latency = 582.661
Maximum flit latency = 2682
Slowest flit = 6935
Minimum fragmentation = 0
Average fragmentation = 0
Maximum fragmentation = 0
Minimum injected packet rate = 0 (at node 0)
Average injected packet rate = 0.00199438
Maximum injected packet rate = 0.00816 (at node 71)
Minimum accepted packet rate = 0 (at node 0)
Average accepted packet rate = 0.00199047
Maximum accepted packet rate = 0.00844 (at node 66)
Minimum injected flit rate = 0 (at node 0)
Average injected flit rate = 0.00199438
Maximum injected flit rate = 0.00816 (at node 71)
Minimum accepted flit rate = 0 (at node 0)
Average accepted flit rate = 0.00199047
Maximum accepted flit rate = 0.00844 (at node 66)
Total number of injected packets = 12764
Total number of injected flits = 12764
Average injected packet length = 1
Total number of accepted packets = 12739
Total number of accepted flits = 12739
Average accepted packet length = 1
Total in-flight flits = 159 (159 measured)
class 0 latency change    = 0.00203116
class 0 throughput change = 0.00191014
Draining remaining packets ...
Class 0:
Remaining flits: 13817 13894 13932 13933 (4 flits)
Measured flits: 13817 13894 13932 13933 (4 flits)
Time taken is 56222 cycles
====== Traffic class 0 ======

Total number of flits generated = 14001, changed lanes = 0
Overall minimum packet latency = 62 (1 samples)
Overall average packet latency = 641.175 (1 samples)
Overall maximum packet latency = 6524 (1 samples)
Overall minimum network latency = 63 (1 samples)
Overall average network latency = 582.866 (1 samples)
Overall maximum network latency = 2682 (1 samples)
Overall minimum flit latency = 63 (1 samples)
Overall average flit latency = 583.758 (1 samples)
Overall maximum flit latency = 2682 (1 samples)
Overall minimum fragmentation = 0 (1 samples)
Overall average fragmentation = 0 (1 samples)
Overall maximum fragmentation = 0 (1 samples)
Overall minimum injected packet rate = 0 (1 samples)
Overall average injected packet rate = 0.00199438 (1 samples)
Overall maximum injected packet rate = 0.00816 (1 samples)
Overall minimum accepted packet rate = 0 (1 samples)
Overall average accepted packet rate = 0.00199047 (1 samples)
Overall maximum accepted packet rate = 0.00844 (1 samples)
Overall minimum injected flit rate = 0 (1 samples)
Overall average injected flit rate = 0.00199438 (1 samples)
Overall maximum injected flit rate = 0.00816 (1 samples)
Overall minimum accepted flit rate = 0 (1 samples)
Overall average accepted flit rate = 0.00199047 (1 samples)
Overall maximum accepted flit rate = 0.00844 (1 samples)
Overall average injected packet size = 1 (1 samples)
Overall average accepted packet size = 1 (1 samples)
Overall average hops = 8.19704 (1 samples)
Overall throughput of the network (flits/cycle) = 0.28002
Overall throughput of the network (packets/cycle) = 0.28002
CSV Result Header , avgFLat,avgFInjRate
CSV Result ,583.758,0.00199438

Power Report Header, Frequency, Time, StaticIQ, DynamicIQ, StaticVC, DynamicVC, StaticSA, DynamicSA, StaticST, DynamicST, StaticLink, DynamicLink, NoFlits, ePerFlit
Power Report,3.9e+08,56222,0.131875,0.0077791,0.00749762,0.00022943,0.00224928,0.000204152,0.477597,0.00257715,0.0905466,0.00532936,14001,7.47631e-09

*****************************************
Total run time 17.4289
generate:0x7fff88ff0d90
delete:0x7fff88ff0d90
L = 2 K = 8.1 M = 2 N = 1
-----------------------------------------
- OCN Power Summary
- Completion Time:         56222
- Flit Widths:            64
- Channel Wire Power:      0.717948
- Channel Clock Power:     1.46183
- Channel Retiming Power:  0.00892011
- Channel Leakage Power:   0.551082
- Input Read Power:        0.0225238
- Input Write Power:       0.0225238
- Input Leakage Power:     0.113246
- Switch Power:            0.0488412
- Switch Control Power:    0.0252881
- Switch Leakage Power:    0.771052
- Output DFF Power:        0.00524959
- Output Clk Power:        0.727126
- Output Control Power:    0.00270922
- Total Power:             4.47833
-----------------------------------------

-----------------------------------------
- OCN Area Summary
- Channel Area:  0.109536
- Switch  Area:  0.241592
- Input  Area:   0.120796
- Output  Area:  0.0201327
- Total Area:    0.492056
-----------------------------------------
CSV Power Result Header , Completion Time, Channel Wire, Channel Clock, Channel Retiming, Channel Leakage, Input Read, Input Write, Input Leakage, Switch Power, Switch Control, Switch Leakage, Output DFF, Output Clk, Output Control
CSV Power Result , 56222, 0.717948, 1.46183, 0.00892011, 0.551082, 0.0225238, 0.0225238, 0.113246, 0.0488412, 0.0252881, 0.771052, 0.00524959, 0.727126, 0.00270922
delete:0x7fff88ff0d90
delete:0x7fff88ff0d90
delete:0x7fff88ff0d90
delete:0x7fff88ff0d90
delete:0x7fff88ff0d90
delete:0x7fff88ff0d90
delete:0x7fff88ff0d90
delete:0x7fff88ff0d90
delete:0x7fff88ff0d90
delete:0x7fff88ff0d90
delete:0x7fff88ff0d90
delete:0x7fff88ff0d90
delete:0x7fff88ff0d90
delete:0x7fff88ff0d90
delete:0x7fff88ff0d90
delete:0x7fff88ff0d90
delete:0x7fff88ff0d90
delete:0x7fff88ff0d90
