generate:0x7fff3ed91b70
generate:0x7fff3ed91c28
generate:0x7fff3ed91ce0
generate:0x7fff3ed91d98
generate:0x7fff3ed91e50
generate:0x7fff3ed91f08
generate:0x7fff3ed91fc0
generate:0x7fff3ed92078
generate:0x7fff3ed92130
generate:0x7fff3ed921e8
generate:0x7fff3ed922a0
generate:0x7fff3ed92358
generate:0x7fff3ed92410
generate:0x7fff3ed924c8
generate:0x7fff3ed92580
generate:0x7fff3ed92638
generate:0x7fff3ed926f0
generate:0x7fff3ed92860
BEGIN Configuration File: interposer2
//topology
topology = mesh;
k = 8;
n = 2;
type = interposer;
// Routing
routing_function = dor;

// Flow control
num_vcs     = 2;
vc_buf_size = 8;
wait_for_tail_credit = 1;
hold_switch_for_packet = 1;

// Router architecture
vc_allocator = islip;
sw_allocator = islip;
alloc_iters  = 1;

credit_delay   = 0;
routing_delay  = 1;
vc_alloc_delay = 1;
sw_alloc_delay = 1;
st_final_delay = 1;

input_speedup     = 1;
output_speedup    = 1;
internal_speedup  = 1.0;
vc_busy_when_full = 0;


//granulaity
latency_thres=20000.0;
deadlock_warn_timeout=20000;
traceStretch=3;

//gating
doGating=0;
sleepThreshold=40;
breakEvenThreshold=80;



//Syn Traffic
//sim_type=latency;
sim_type=throughput;
traffic=uniform;
packet_size = 1;
sample_period=5000;
warmup_periods=1;
max_samples=11;
injection_rate=0.010;

creditDelays=creditDelays({0,0,0,0,0,0,0,0,0,0,0,0,0,0,0,0,0,0,0,0,0,0,0,0,0,0,0,0,0,0,0,0,0,0,0,0,0,0,0,0,0,0,0,0,0,0,0,0,0,0,0,0,0,0,0,0,0,0,0,0,0,0,0,0}});
routingDelays=routingDelays({15,15,15,15,15,15,15,15,15,15,15,15,15,15,15,15,15,15,15,15,15,15,15,15,15,15,15,15,15,15,15,15,15,15,15,15,15,15,15,15,15,15,15,15,15,15,15,15,15,15,15,15,15,15,15,15,15,15,15,15,15,15,15,15});
vcAllocDelays=vcAllocDelays({15,15,15,15,15,15,15,15,15,15,15,15,15,15,15,15,15,15,15,15,15,15,15,15,15,15,15,15,15,15,15,15,15,15,15,15,15,15,15,15,15,15,15,15,15,15,15,15,15,15,15,15,15,15,15,15,15,15,15,15,15,15,15,15});
swAllocDelays=swAllocDelays({15,15,15,15,15,15,15,15,15,15,15,15,15,15,15,15,15,15,15,15,15,15,15,15,15,15,15,15,15,15,15,15,15,15,15,15,15,15,15,15,15,15,15,15,15,15,15,15,15,15,15,15,15,15,15,15,15,15,15,15,15,15,15,15});
stFinalDelays=stFinalDelays({15,15,15,15,15,15,15,15,15,15,15,15,15,15,15,15,15,15,15,15,15,15,15,15,15,15,15,15,15,15,15,15,15,15,15,15,15,15,15,15,15,15,15,15,15,15,15,15,15,15,15,15,15,15,15,15,15,15,15,15,15,15,15,15});

isAsync=isAsync({0,0,0,0,0,0,0,0,0,0,0,0,0,0,0,0,0,0,0,0,0,0,0,0,0,0,0,0,0,0,0,0,0,0,0,0,0,0,0,0,0,0,0,0,0,0,0,0,0,0,0,0,0,0,0,0,0,0,0,0,0,0,0,0});
isMetaUnstable=isMetaUnstable({0,0,0,0,0,0,0,0,0,0,0,0,0,0,0,0,0,0,0,0,0,0,0,0,0,0,0,0,0,0,0,0,0,0,0,0,0,0,0,0,0,0,0,0,0,0,0,0,0,0,0,0,0,0,0,0,0,0,0,0,0,0,0,0});

creditDelayStdDevs=creditDelayStdDevs({0,0,0,0,0,0,0,0,0,0,0,0,0,0,0,0,0,0,0,0,0,0,0,0,0,0,0,0,0,0,0,0,0,0,0,0,0,0,0,0,0,0,0,0,0,0,0,0,0,0,0,0,0,0,0,0,0,0,0,0,0,0,0,0});
routingDelayStdDevs=routingDelayStdDevs({0,0,0,0,0,0,0,0,0,0,0,0,0,0,0,0,0,0,0,0,0,0,0,0,0,0,0,0,0,0,0,0,0,0,0,0,0,0,0,0,0,0,0,0,0,0,0,0,0,0,0,0,0,0,0,0,0,0,0,0,0,0,0,0});
vcAllocDelayStdDevs=vcAllocDelayStdDevs({0,0,0,0,0,0,0,0,0,0,0,0,0,0,0,0,0,0,0,0,0,0,0,0,0,0,0,0,0,0,0,0,0,0,0,0,0,0,0,0,0,0,0,0,0,0,0,0,0,0,0,0,0,0,0,0,0,0,0,0,0,0,0,0});
swAllocDelayStdDevs=swAllocDelayStdDevs({0,0,0,0,0,0,0,0,0,0,0,0,0,0,0,0,0,0,0,0,0,0,0,0,0,0,0,0,0,0,0,0,0,0,0,0,0,0,0,0,0,0,0,0,0,0,0,0,0,0,0,0,0,0,0,0,0,0,0,0,0,0,0,0});
stFinalDelayStdDevs=stFinalDelayStdDevs({0,0,0,0,0,0,0,0,0,0,0,0,0,0,0,0,0,0,0,0,0,0,0,0,0,0,0,0,0,0,0,0,0,0,0,0,0,0,0,0,0,0,0,0,0,0,0,0,0,0,0,0,0,0,0,0,0,0,0,0,0,0,0,0});

  
swAllocThresholds=swAllocThresholds({1,1,1,1,1,1,1,1,1,1,1,1,1,1,1,1,1,1,1,1,1,1,1,1,1,1,1,1,1,1,1,1,1,1,1,1,1,1,1,1,1,1,1,1,1,1,1,1,1,1,1,1,1,1,1,1,1,1,1,1,1,1,1,1});
swAllocThresholdStdDevs=swAllocThresholdStdDevs({0,0,0,0,0,0,0,0,0,0,0,0,0,0,0,0,0,0,0,0,0,0,0,0,0,0,0,0,0,0,0,0,0,0,0,0,0,0,0,0,0,0,0,0,0,0,0,0,0,0,0,0,0,0,0,0,0,0,0,0,0,0,0,0});
swAllocMetaStableThresholds=swAllocMetaStableThresholds({1,1,1,1,1,1,1,1,1,1,1,1,1,1,1,1,1,1,1,1,1,1,1,1,1,1,1,1,1,1,1,1,1,1,1,1,1,1,1,1,1,1,1,1,1,1,1,1,1,1,1,1,1,1,1,1,1,1,1,1,1,1,1,1});
swAllocMetaStableMaxPenalities=swAllocMetaStableMaxPenalities({0,0,0,0,0,0,0,0,0,0,0,0,0,0,0,0,0,0,0,0,0,0,0,0,0,0,0,0,0,0,0,0,0,0,0,0,0,0,0,0,0,0,0,0,0,0,0,0,0,0,0,0,0,0,0,0,0,0,0,0,0,0,0,0});

END Configuration File: interposer2
BEGIN Configuration File: chiplet16/chip1
//topology
topology = mesh;
k = 2;
n = 2;
type = chip;
start_point = 0;
cnum=1;
// Routing
routing_function = dor;

// Flow control
num_vcs     = 2;
vc_buf_size = 8;
wait_for_tail_credit = 1;
hold_switch_for_packet = 1;

// Router architecture
vc_allocator = islip;
sw_allocator = islip;
alloc_iters  = 1;

credit_delay   = 0;
routing_delay  = 1;
vc_alloc_delay = 1;
sw_alloc_delay = 1;
st_final_delay = 1;

input_speedup     = 1;
output_speedup    = 1;
internal_speedup  = 1.0;
vc_busy_when_full = 0;


//granulaity
latency_thres=20000.0;
deadlock_warn_timeout=20000;
traceStretch=3;

//gating
doGating=0;
sleepThreshold=40;
breakEvenThreshold=80;



//Syn Traffic
sim_type=latency;
traffic=uniform;
packet_size = 1;
sample_period=50000;
warmup_periods=1;
max_samples=12;
injection_rate=0.01;

creditDelays=creditDelays({0,0,0,0});
routingDelays=routingDelays({15,15,15,15});
vcAllocDelays=vcAllocDelays({15,15,15,15});
swAllocDelays=swAllocDelays({15,15,15,15});
stFinalDelays=stFinalDelays({15,15,15,15});

isAsync=isAsync({0,0,0,0});
isMetaUnstable=isMetaUnstable({0,0,0,0});

creditDelayStdDevs=creditDelayStdDevs({0,0,0,0});
routingDelayStdDevs=routingDelayStdDevs({0,0,0,0});
vcAllocDelayStdDevs=vcAllocDelayStdDevs({0,0,0,0});
swAllocDelayStdDevs=swAllocDelayStdDevs({0,0,0,0});
stFinalDelayStdDevs=stFinalDelayStdDevs({0,0,0,0});

  
swAllocThresholds=swAllocThresholds({1,1,1,1});
swAllocThresholdStdDevs=swAllocThresholdStdDevs({0,0,0,0});
swAllocMetaStableThresholds=swAllocMetaStableThresholds({1,1,1,1});
swAllocMetaStableMaxPenalities=swAllocMetaStableMaxPenalities({0,0,0,0});

END Configuration File: chiplet16/chip1
BEGIN Configuration File: chiplet16/chip2
//topology
topology = mesh;
k = 2;
n = 2;
type = chip;
start_point = 2;
cnum=2;
// Routing
routing_function = dor;

// Flow control
num_vcs     = 2;
vc_buf_size = 8;
wait_for_tail_credit = 1;
hold_switch_for_packet = 1;

// Router architecture
vc_allocator = islip;
sw_allocator = islip;
alloc_iters  = 1;

credit_delay   = 0;
routing_delay  = 1;
vc_alloc_delay = 1;
sw_alloc_delay = 1;
st_final_delay = 1;

input_speedup     = 1;
output_speedup    = 1;
internal_speedup  = 1.0;
vc_busy_when_full = 0;


//granulaity
latency_thres=20000.0;
deadlock_warn_timeout=20000;
traceStretch=3;

//gating
doGating=0;
sleepThreshold=40;
breakEvenThreshold=80;



//Syn Traffic
sim_type=latency;
traffic=uniform;
packet_size = 1;
sample_period=50000;
warmup_periods=1;
max_samples=12;
injection_rate=0.01;

creditDelays=creditDelays({0,0,0,0});
routingDelays=routingDelays({15,15,15,15});
vcAllocDelays=vcAllocDelays({15,15,15,15});
swAllocDelays=swAllocDelays({15,15,15,15});
stFinalDelays=stFinalDelays({15,15,15,15});

isAsync=isAsync({0,0,0,0});
isMetaUnstable=isMetaUnstable({0,0,0,0});

creditDelayStdDevs=creditDelayStdDevs({0,0,0,0});
routingDelayStdDevs=routingDelayStdDevs({0,0,0,0});
vcAllocDelayStdDevs=vcAllocDelayStdDevs({0,0,0,0});
swAllocDelayStdDevs=swAllocDelayStdDevs({0,0,0,0});
stFinalDelayStdDevs=stFinalDelayStdDevs({0,0,0,0});

  
swAllocThresholds=swAllocThresholds({1,1,1,1});
swAllocThresholdStdDevs=swAllocThresholdStdDevs({0,0,0,0});
swAllocMetaStableThresholds=swAllocMetaStableThresholds({1,1,1,1});
swAllocMetaStableMaxPenalities=swAllocMetaStableMaxPenalities({0,0,0,0});

END Configuration File: chiplet16/chip2
BEGIN Configuration File: chiplet16/chip3
//topology
topology = mesh;
k = 2;
n = 2;
type = chip;
start_point = 4;
cnum=3;
// Routing
routing_function = dor;

// Flow control
num_vcs     = 2;
vc_buf_size = 8;
wait_for_tail_credit = 1;
hold_switch_for_packet = 1;

// Router architecture
vc_allocator = islip;
sw_allocator = islip;
alloc_iters  = 1;

credit_delay   = 0;
routing_delay  = 1;
vc_alloc_delay = 1;
sw_alloc_delay = 1;
st_final_delay = 1;

input_speedup     = 1;
output_speedup    = 1;
internal_speedup  = 1.0;
vc_busy_when_full = 0;


//granulaity
latency_thres=20000.0;
deadlock_warn_timeout=20000;
traceStretch=3;

//gating
doGating=0;
sleepThreshold=40;
breakEvenThreshold=80;



//Syn Traffic
sim_type=latency;
traffic=uniform;
packet_size = 1;
sample_period=50000;
warmup_periods=1;
max_samples=12;
injection_rate=0.01;

creditDelays=creditDelays({0,0,0,0});
routingDelays=routingDelays({15,15,15,15});
vcAllocDelays=vcAllocDelays({15,15,15,15});
swAllocDelays=swAllocDelays({15,15,15,15});
stFinalDelays=stFinalDelays({15,15,15,15});

isAsync=isAsync({0,0,0,0});
isMetaUnstable=isMetaUnstable({0,0,0,0});

creditDelayStdDevs=creditDelayStdDevs({0,0,0,0});
routingDelayStdDevs=routingDelayStdDevs({0,0,0,0});
vcAllocDelayStdDevs=vcAllocDelayStdDevs({0,0,0,0});
swAllocDelayStdDevs=swAllocDelayStdDevs({0,0,0,0});
stFinalDelayStdDevs=stFinalDelayStdDevs({0,0,0,0});

  
swAllocThresholds=swAllocThresholds({1,1,1,1});
swAllocThresholdStdDevs=swAllocThresholdStdDevs({0,0,0,0});
swAllocMetaStableThresholds=swAllocMetaStableThresholds({1,1,1,1});
swAllocMetaStableMaxPenalities=swAllocMetaStableMaxPenalities({0,0,0,0});

END Configuration File: chiplet16/chip3
BEGIN Configuration File: chiplet16/chip4
//topology
topology = mesh;
k = 2;
n = 2;
type = chip;
start_point = 6;
cnum=4;
// Routing
routing_function = dor;

// Flow control
num_vcs     = 2;
vc_buf_size = 8;
wait_for_tail_credit = 1;
hold_switch_for_packet = 1;

// Router architecture
vc_allocator = islip;
sw_allocator = islip;
alloc_iters  = 1;

credit_delay   = 0;
routing_delay  = 1;
vc_alloc_delay = 1;
sw_alloc_delay = 1;
st_final_delay = 1;

input_speedup     = 1;
output_speedup    = 1;
internal_speedup  = 1.0;
vc_busy_when_full = 0;


//granulaity
latency_thres=20000.0;
deadlock_warn_timeout=20000;
traceStretch=3;

//gating
doGating=0;
sleepThreshold=40;
breakEvenThreshold=80;



//Syn Traffic
sim_type=latency;
traffic=uniform;
packet_size = 1;
sample_period=50000;
warmup_periods=1;
max_samples=12;
injection_rate=0.01;

creditDelays=creditDelays({0,0,0,0});
routingDelays=routingDelays({15,15,15,15});
vcAllocDelays=vcAllocDelays({15,15,15,15});
swAllocDelays=swAllocDelays({15,15,15,15});
stFinalDelays=stFinalDelays({15,15,15,15});

isAsync=isAsync({0,0,0,0});
isMetaUnstable=isMetaUnstable({0,0,0,0});

creditDelayStdDevs=creditDelayStdDevs({0,0,0,0});
routingDelayStdDevs=routingDelayStdDevs({0,0,0,0});
vcAllocDelayStdDevs=vcAllocDelayStdDevs({0,0,0,0});
swAllocDelayStdDevs=swAllocDelayStdDevs({0,0,0,0});
stFinalDelayStdDevs=stFinalDelayStdDevs({0,0,0,0});

  
swAllocThresholds=swAllocThresholds({1,1,1,1});
swAllocThresholdStdDevs=swAllocThresholdStdDevs({0,0,0,0});
swAllocMetaStableThresholds=swAllocMetaStableThresholds({1,1,1,1});
swAllocMetaStableMaxPenalities=swAllocMetaStableMaxPenalities({0,0,0,0});

END Configuration File: chiplet16/chip4
BEGIN Configuration File: chiplet16/chip5
//topology
topology = mesh;
k = 2;
n = 2;
type = chip;
start_point = 8;
cnum=5;
//16
// Routing
routing_function = dor;

// Flow control
num_vcs     = 2;
vc_buf_size = 8;
wait_for_tail_credit = 1;
hold_switch_for_packet = 1;

// Router architecture
vc_allocator = islip;
sw_allocator = islip;
alloc_iters  = 1;

credit_delay   = 1;
routing_delay  = 1;
vc_alloc_delay = 1;
sw_alloc_delay = 1;
st_final_delay = 1;

input_speedup     = 1;
output_speedup    = 1;
internal_speedup  = 1.0;
vc_busy_when_full = 0;


//granulaity
latency_thres=20000.0;
deadlock_warn_timeout=20000;
traceStretch=3;

//gating
doGating=0;
sleepThreshold=40;
breakEvenThreshold=80;



//Syn Traffic
sim_type=latency;
traffic=uniform;
packet_size = 1;
sample_period=50000;
warmup_periods=1;
max_samples=12;
injection_rate=0.01;

creditDelays=creditDelays({0,0,0,0});
routingDelays=routingDelays({15,15,15,15});
vcAllocDelays=vcAllocDelays({15,15,15,15});
swAllocDelays=swAllocDelays({15,15,15,15});
stFinalDelays=stFinalDelays({15,15,15,15});

isAsync=isAsync({0,0,0,0});
isMetaUnstable=isMetaUnstable({0,0,0,0});

creditDelayStdDevs=creditDelayStdDevs({0,0,0,0});
routingDelayStdDevs=routingDelayStdDevs({0,0,0,0});
vcAllocDelayStdDevs=vcAllocDelayStdDevs({0,0,0,0});
swAllocDelayStdDevs=swAllocDelayStdDevs({0,0,0,0});
stFinalDelayStdDevs=stFinalDelayStdDevs({0,0,0,0});

  
swAllocThresholds=swAllocThresholds({1,1,1,1});
swAllocThresholdStdDevs=swAllocThresholdStdDevs({0,0,0,0});
swAllocMetaStableThresholds=swAllocMetaStableThresholds({1,1,1,1});
swAllocMetaStableMaxPenalities=swAllocMetaStableMaxPenalities({0,0,0,0});

END Configuration File: chiplet16/chip5
BEGIN Configuration File: chiplet16/chip6
//topology
topology = mesh;
k = 2;
n = 2;
type = chip;
start_point = 10;
cnum=6;
//18
// Routing
routing_function = dor;

// Flow control
num_vcs     = 2;
vc_buf_size = 8;
wait_for_tail_credit = 1;
hold_switch_for_packet = 1;

// Router architecture
vc_allocator = islip;
sw_allocator = islip;
alloc_iters  = 1;

credit_delay   = 0;
routing_delay  = 1;
vc_alloc_delay = 1;
sw_alloc_delay = 1;
st_final_delay = 1;

input_speedup     = 1;
output_speedup    = 1;
internal_speedup  = 1.0;
vc_busy_when_full = 0;


//granulaity
latency_thres=20000.0;
deadlock_warn_timeout=20000;
traceStretch=3;

//gating
doGating=0;
sleepThreshold=40;
breakEvenThreshold=80;



//Syn Traffic
sim_type=latency;
traffic=uniform;
packet_size = 1;
sample_period=50000;
warmup_periods=1;
max_samples=12;
injection_rate=0.01;

creditDelays=creditDelays({0,0,0,0});
routingDelays=routingDelays({15,15,15,15});
vcAllocDelays=vcAllocDelays({15,15,15,15});
swAllocDelays=swAllocDelays({15,15,15,15});
stFinalDelays=stFinalDelays({15,15,15,15});

isAsync=isAsync({0,0,0,0});
isMetaUnstable=isMetaUnstable({0,0,0,0});

creditDelayStdDevs=creditDelayStdDevs({0,0,0,0});
routingDelayStdDevs=routingDelayStdDevs({0,0,0,0});
vcAllocDelayStdDevs=vcAllocDelayStdDevs({0,0,0,0});
swAllocDelayStdDevs=swAllocDelayStdDevs({0,0,0,0});
stFinalDelayStdDevs=stFinalDelayStdDevs({0,0,0,0});

  
swAllocThresholds=swAllocThresholds({1,1,1,1});
swAllocThresholdStdDevs=swAllocThresholdStdDevs({0,0,0,0});
swAllocMetaStableThresholds=swAllocMetaStableThresholds({1,1,1,1});
swAllocMetaStableMaxPenalities=swAllocMetaStableMaxPenalities({0,0,0,0});

END Configuration File: chiplet16/chip6
BEGIN Configuration File: chiplet16/chip7
//topology
topology = mesh;
k = 2;
n = 2;
type = chip;
start_point = 20;
cnum=7;
// Routing
routing_function = dor;

// Flow control
num_vcs     = 2;
vc_buf_size = 8;
wait_for_tail_credit = 1;
hold_switch_for_packet = 1;

// Router architecture
vc_allocator = islip;
sw_allocator = islip;
alloc_iters  = 1;

credit_delay   = 0;
routing_delay  = 1;
vc_alloc_delay = 1;
sw_alloc_delay = 1;
st_final_delay = 1;

input_speedup     = 1;
output_speedup    = 1;
internal_speedup  = 1.0;
vc_busy_when_full = 0;


//granulaity
latency_thres=20000.0;
deadlock_warn_timeout=20000;
traceStretch=3;

//gating
doGating=0;
sleepThreshold=40;
breakEvenThreshold=80;



//Syn Traffic
sim_type=latency;
traffic=uniform;
packet_size = 1;
sample_period=50000;
warmup_periods=1;
max_samples=12;
injection_rate=0.01;

creditDelays=creditDelays({0,0,0,0});
routingDelays=routingDelays({15,15,15,15});
vcAllocDelays=vcAllocDelays({15,15,15,15});
swAllocDelays=swAllocDelays({15,15,15,15});
stFinalDelays=stFinalDelays({15,15,15,15});

isAsync=isAsync({0,0,0,0});
isMetaUnstable=isMetaUnstable({0,0,0,0});

creditDelayStdDevs=creditDelayStdDevs({0,0,0,0});
routingDelayStdDevs=routingDelayStdDevs({0,0,0,0});
vcAllocDelayStdDevs=vcAllocDelayStdDevs({0,0,0,0});
swAllocDelayStdDevs=swAllocDelayStdDevs({0,0,0,0});
stFinalDelayStdDevs=stFinalDelayStdDevs({0,0,0,0});

  
swAllocThresholds=swAllocThresholds({1,1,1,1});
swAllocThresholdStdDevs=swAllocThresholdStdDevs({0,0,0,0});
swAllocMetaStableThresholds=swAllocMetaStableThresholds({1,1,1,1});
swAllocMetaStableMaxPenalities=swAllocMetaStableMaxPenalities({0,0,0,0});

END Configuration File: chiplet16/chip7
BEGIN Configuration File: chiplet16/chip8
//topology
topology = mesh;
k = 2;
n = 2;
type = chip;
start_point = 22;
cnum=8;
// Routing
routing_function = dor;

// Flow control
num_vcs     = 2;
vc_buf_size = 8;
wait_for_tail_credit = 1;
hold_switch_for_packet = 1;

// Router architecture
vc_allocator = islip;
sw_allocator = islip;
alloc_iters  = 1;

credit_delay   = 0;
routing_delay  = 1;
vc_alloc_delay = 1;
sw_alloc_delay = 1;
st_final_delay = 1;

input_speedup     = 1;
output_speedup    = 1;
internal_speedup  = 1.0;
vc_busy_when_full = 0;


//granulaity
latency_thres=20000.0;
deadlock_warn_timeout=20000;
traceStretch=3;

//gating
doGating=0;
sleepThreshold=40;
breakEvenThreshold=80;



//Syn Traffic
sim_type=latency;
traffic=uniform;
packet_size = 1;
sample_period=50000;
warmup_periods=1;
max_samples=12;
injection_rate=0.01;

creditDelays=creditDelays({0,0,0,0});
routingDelays=routingDelays({15,15,15,15});
vcAllocDelays=vcAllocDelays({15,15,15,15});
swAllocDelays=swAllocDelays({15,15,15,15});
stFinalDelays=stFinalDelays({15,15,15,15});

isAsync=isAsync({0,0,0,0});
isMetaUnstable=isMetaUnstable({0,0,0,0});

creditDelayStdDevs=creditDelayStdDevs({0,0,0,0});
routingDelayStdDevs=routingDelayStdDevs({0,0,0,0});
vcAllocDelayStdDevs=vcAllocDelayStdDevs({0,0,0,0});
swAllocDelayStdDevs=swAllocDelayStdDevs({0,0,0,0});
stFinalDelayStdDevs=stFinalDelayStdDevs({0,0,0,0});

  
swAllocThresholds=swAllocThresholds({1,1,1,1});
swAllocThresholdStdDevs=swAllocThresholdStdDevs({0,0,0,0});
swAllocMetaStableThresholds=swAllocMetaStableThresholds({1,1,1,1});
swAllocMetaStableMaxPenalities=swAllocMetaStableMaxPenalities({0,0,0,0});

END Configuration File: chiplet16/chip8
BEGIN Configuration File: chiplet16/chip9
//topology
topology = mesh;
k = 2;
n = 2;
type = chip;
start_point = 32;
cnum=9;
// Routing
routing_function = dor;

// Flow control
num_vcs     = 2;
vc_buf_size = 8;
wait_for_tail_credit = 1;
hold_switch_for_packet = 1;

// Router architecture
vc_allocator = islip;
sw_allocator = islip;
alloc_iters  = 1;

credit_delay   = 0;
routing_delay  = 1;
vc_alloc_delay = 1;
sw_alloc_delay = 1;
st_final_delay = 1;

input_speedup     = 1;
output_speedup    = 1;
internal_speedup  = 1.0;
vc_busy_when_full = 0;


//granulaity
latency_thres=20000.0;
deadlock_warn_timeout=20000;
traceStretch=3;

//gating
doGating=0;
sleepThreshold=40;
breakEvenThreshold=80;



//Syn Traffic
sim_type=latency;
traffic=uniform;
packet_size = 1;
sample_period=50000;
warmup_periods=1;
max_samples=12;
injection_rate=0.01;

creditDelays=creditDelays({0,0,0,0});
routingDelays=routingDelays({15,15,15,15});
vcAllocDelays=vcAllocDelays({15,15,15,15});
swAllocDelays=swAllocDelays({15,15,15,15});
stFinalDelays=stFinalDelays({15,15,15,15});

isAsync=isAsync({0,0,0,0});
isMetaUnstable=isMetaUnstable({0,0,0,0});

creditDelayStdDevs=creditDelayStdDevs({0,0,0,0});
routingDelayStdDevs=routingDelayStdDevs({0,0,0,0});
vcAllocDelayStdDevs=vcAllocDelayStdDevs({0,0,0,0});
swAllocDelayStdDevs=swAllocDelayStdDevs({0,0,0,0});
stFinalDelayStdDevs=stFinalDelayStdDevs({0,0,0,0});

  
swAllocThresholds=swAllocThresholds({1,1,1,1});
swAllocThresholdStdDevs=swAllocThresholdStdDevs({0,0,0,0});
swAllocMetaStableThresholds=swAllocMetaStableThresholds({1,1,1,1});
swAllocMetaStableMaxPenalities=swAllocMetaStableMaxPenalities({0,0,0,0});

END Configuration File: chiplet16/chip9
BEGIN Configuration File: chiplet16/chip10
//topology
topology = mesh;
k = 2;
n = 2;
type = chip;
start_point = 34;
cnum=10;
// Routing
routing_function = dor;

// Flow control
num_vcs     = 2;
vc_buf_size = 8;
wait_for_tail_credit = 1;
hold_switch_for_packet = 1;

// Router architecture
vc_allocator = islip;
sw_allocator = islip;
alloc_iters  = 1;

credit_delay   = 0;
routing_delay  = 1;
vc_alloc_delay = 1;
sw_alloc_delay = 1;
st_final_delay = 1;

input_speedup     = 1;
output_speedup    = 1;
internal_speedup  = 1.0;
vc_busy_when_full = 0;


//granulaity
latency_thres=20000.0;
deadlock_warn_timeout=20000;
traceStretch=3;

//gating
doGating=0;
sleepThreshold=40;
breakEvenThreshold=80;



//Syn Traffic
sim_type=latency;
traffic=uniform;
packet_size = 1;
sample_period=50000;
warmup_periods=1;
max_samples=12;
injection_rate=0.01;

creditDelays=creditDelays({0,0,0,0});
routingDelays=routingDelays({15,15,15,15});
vcAllocDelays=vcAllocDelays({15,15,15,15});
swAllocDelays=swAllocDelays({15,15,15,15});
stFinalDelays=stFinalDelays({15,15,15,15});

isAsync=isAsync({0,0,0,0});
isMetaUnstable=isMetaUnstable({0,0,0,0});

creditDelayStdDevs=creditDelayStdDevs({0,0,0,0});
routingDelayStdDevs=routingDelayStdDevs({0,0,0,0});
vcAllocDelayStdDevs=vcAllocDelayStdDevs({0,0,0,0});
swAllocDelayStdDevs=swAllocDelayStdDevs({0,0,0,0});
stFinalDelayStdDevs=stFinalDelayStdDevs({0,0,0,0});

  
swAllocThresholds=swAllocThresholds({1,1,1,1});
swAllocThresholdStdDevs=swAllocThresholdStdDevs({0,0,0,0});
swAllocMetaStableThresholds=swAllocMetaStableThresholds({1,1,1,1});
swAllocMetaStableMaxPenalities=swAllocMetaStableMaxPenalities({0,0,0,0});

END Configuration File: chiplet16/chip10
BEGIN Configuration File: chiplet16/chip11
//topology
topology = mesh;
k = 2;
n = 2;
type = chip;
start_point = 36;
cnum=11;
// Routing
routing_function = dor;

// Flow control
num_vcs     = 2;
vc_buf_size = 8;
wait_for_tail_credit = 1;
hold_switch_for_packet = 1;

// Router architecture
vc_allocator = islip;
sw_allocator = islip;
alloc_iters  = 1;

credit_delay   = 0;
routing_delay  = 1;
vc_alloc_delay = 1;
sw_alloc_delay = 1;
st_final_delay = 1;

input_speedup     = 1;
output_speedup    = 1;
internal_speedup  = 1.0;
vc_busy_when_full = 0;


//granulaity
latency_thres=20000.0;
deadlock_warn_timeout=20000;
traceStretch=3;

//gating
doGating=0;
sleepThreshold=40;
breakEvenThreshold=80;



//Syn Traffic
sim_type=latency;
traffic=uniform;
packet_size = 1;
sample_period=50000;
warmup_periods=1;
max_samples=12;
injection_rate=0.01;

creditDelays=creditDelays({0,0,0,0});
routingDelays=routingDelays({15,15,15,15});
vcAllocDelays=vcAllocDelays({15,15,15,15});
swAllocDelays=swAllocDelays({15,15,15,15});
stFinalDelays=stFinalDelays({15,15,15,15});

isAsync=isAsync({0,0,0,0});
isMetaUnstable=isMetaUnstable({0,0,0,0});

creditDelayStdDevs=creditDelayStdDevs({0,0,0,0});
routingDelayStdDevs=routingDelayStdDevs({0,0,0,0});
vcAllocDelayStdDevs=vcAllocDelayStdDevs({0,0,0,0});
swAllocDelayStdDevs=swAllocDelayStdDevs({0,0,0,0});
stFinalDelayStdDevs=stFinalDelayStdDevs({0,0,0,0});

  
swAllocThresholds=swAllocThresholds({1,1,1,1});
swAllocThresholdStdDevs=swAllocThresholdStdDevs({0,0,0,0});
swAllocMetaStableThresholds=swAllocMetaStableThresholds({1,1,1,1});
swAllocMetaStableMaxPenalities=swAllocMetaStableMaxPenalities({0,0,0,0});

END Configuration File: chiplet16/chip11
BEGIN Configuration File: chiplet16/chip12
//topology
topology = mesh;
k = 2;
n = 2;
type = chip;
start_point = 38;
cnum=12;
// Routing
routing_function = dor;

// Flow control
num_vcs     = 2;
vc_buf_size = 8;
wait_for_tail_credit = 1;
hold_switch_for_packet = 1;

// Router architecture
vc_allocator = islip;
sw_allocator = islip;
alloc_iters  = 1;

credit_delay   = 0;
routing_delay  = 1;
vc_alloc_delay = 1;
sw_alloc_delay = 1;
st_final_delay = 1;

input_speedup     = 1;
output_speedup    = 1;
internal_speedup  = 1.0;
vc_busy_when_full = 0;


//granulaity
latency_thres=20000.0;
deadlock_warn_timeout=20000;
traceStretch=3;

//gating
doGating=0;
sleepThreshold=40;
breakEvenThreshold=80;



//Syn Traffic
sim_type=latency;
traffic=uniform;
packet_size = 1;
sample_period=50000;
warmup_periods=1;
max_samples=12;
injection_rate=0.01;

creditDelays=creditDelays({0,0,0,0});
routingDelays=routingDelays({15,15,15,15});
vcAllocDelays=vcAllocDelays({15,15,15,15});
swAllocDelays=swAllocDelays({15,15,15,15});
stFinalDelays=stFinalDelays({15,15,15,15});

isAsync=isAsync({0,0,0,0});
isMetaUnstable=isMetaUnstable({0,0,0,0});

creditDelayStdDevs=creditDelayStdDevs({0,0,0,0});
routingDelayStdDevs=routingDelayStdDevs({0,0,0,0});
vcAllocDelayStdDevs=vcAllocDelayStdDevs({0,0,0,0});
swAllocDelayStdDevs=swAllocDelayStdDevs({0,0,0,0});
stFinalDelayStdDevs=stFinalDelayStdDevs({0,0,0,0});

  
swAllocThresholds=swAllocThresholds({1,1,1,1});
swAllocThresholdStdDevs=swAllocThresholdStdDevs({0,0,0,0});
swAllocMetaStableThresholds=swAllocMetaStableThresholds({1,1,1,1});
swAllocMetaStableMaxPenalities=swAllocMetaStableMaxPenalities({0,0,0,0});

END Configuration File: chiplet16/chip12
BEGIN Configuration File: chiplet16/chip13
//topology
topology = mesh;
k = 2;
n = 2;
type = chip;
start_point = 48;
cnum=13;
// Routing
routing_function = dor;

// Flow control
num_vcs     = 2;
vc_buf_size = 8;
wait_for_tail_credit = 1;
hold_switch_for_packet = 1;

// Router architecture
vc_allocator = islip;
sw_allocator = islip;
alloc_iters  = 1;

credit_delay   = 0;
routing_delay  = 1;
vc_alloc_delay = 1;
sw_alloc_delay = 1;
st_final_delay = 1;

input_speedup     = 1;
output_speedup    = 1;
internal_speedup  = 1.0;
vc_busy_when_full = 0;


//granulaity
latency_thres=20000.0;
deadlock_warn_timeout=20000;
traceStretch=3;

//gating
doGating=0;
sleepThreshold=40;
breakEvenThreshold=80;



//Syn Traffic
sim_type=latency;
traffic=uniform;
packet_size = 1;
sample_period=50000;
warmup_periods=1;
max_samples=12;
injection_rate=0.01;

creditDelays=creditDelays({0,0,0,0});
routingDelays=routingDelays({15,15,15,15});
vcAllocDelays=vcAllocDelays({15,15,15,15});
swAllocDelays=swAllocDelays({15,15,15,15});
stFinalDelays=stFinalDelays({15,15,15,15});

isAsync=isAsync({0,0,0,0});
isMetaUnstable=isMetaUnstable({0,0,0,0});

creditDelayStdDevs=creditDelayStdDevs({0,0,0,0});
routingDelayStdDevs=routingDelayStdDevs({0,0,0,0});
vcAllocDelayStdDevs=vcAllocDelayStdDevs({0,0,0,0});
swAllocDelayStdDevs=swAllocDelayStdDevs({0,0,0,0});
stFinalDelayStdDevs=stFinalDelayStdDevs({0,0,0,0});

  
swAllocThresholds=swAllocThresholds({1,1,1,1});
swAllocThresholdStdDevs=swAllocThresholdStdDevs({0,0,0,0});
swAllocMetaStableThresholds=swAllocMetaStableThresholds({1,1,1,1});
swAllocMetaStableMaxPenalities=swAllocMetaStableMaxPenalities({0,0,0,0});

END Configuration File: chiplet16/chip13
BEGIN Configuration File: chiplet16/chip14
//topology
topology = mesh;
k = 2;
n = 2;
type = chip;
start_point = 50;
cnum=14;
// Routing
routing_function = dor;

// Flow control
num_vcs     = 2;
vc_buf_size = 8;
wait_for_tail_credit = 1;
hold_switch_for_packet = 1;

// Router architecture
vc_allocator = islip;
sw_allocator = islip;
alloc_iters  = 1;

credit_delay   = 0;
routing_delay  = 1;
vc_alloc_delay = 1;
sw_alloc_delay = 1;
st_final_delay = 1;

input_speedup     = 1;
output_speedup    = 1;
internal_speedup  = 1.0;
vc_busy_when_full = 0;


//granulaity
latency_thres=20000.0;
deadlock_warn_timeout=20000;
traceStretch=3;

//gating
doGating=0;
sleepThreshold=40;
breakEvenThreshold=80;



//Syn Traffic
sim_type=latency;
traffic=uniform;
packet_size = 1;
sample_period=50000;
warmup_periods=1;
max_samples=12;
injection_rate=0.01;

creditDelays=creditDelays({0,0,0,0});
routingDelays=routingDelays({15,15,15,15});
vcAllocDelays=vcAllocDelays({15,15,15,15});
swAllocDelays=swAllocDelays({15,15,15,15});
stFinalDelays=stFinalDelays({15,15,15,15});

isAsync=isAsync({0,0,0,0});
isMetaUnstable=isMetaUnstable({0,0,0,0});

creditDelayStdDevs=creditDelayStdDevs({0,0,0,0});
routingDelayStdDevs=routingDelayStdDevs({0,0,0,0});
vcAllocDelayStdDevs=vcAllocDelayStdDevs({0,0,0,0});
swAllocDelayStdDevs=swAllocDelayStdDevs({0,0,0,0});
stFinalDelayStdDevs=stFinalDelayStdDevs({0,0,0,0});

  
swAllocThresholds=swAllocThresholds({1,1,1,1});
swAllocThresholdStdDevs=swAllocThresholdStdDevs({0,0,0,0});
swAllocMetaStableThresholds=swAllocMetaStableThresholds({1,1,1,1});
swAllocMetaStableMaxPenalities=swAllocMetaStableMaxPenalities({0,0,0,0});

END Configuration File: chiplet16/chip14
BEGIN Configuration File: chiplet16/chip15
//topology
topology = mesh;
k = 2;
n = 2;
type = chip;
start_point = 52;
cnum=15;
// Routing
routing_function = dor;

// Flow control
num_vcs     = 2;
vc_buf_size = 8;
wait_for_tail_credit = 1;
hold_switch_for_packet = 1;

// Router architecture
vc_allocator = islip;
sw_allocator = islip;
alloc_iters  = 1;

credit_delay   = 0;
routing_delay  = 1;
vc_alloc_delay = 1;
sw_alloc_delay = 1;
st_final_delay = 1;

input_speedup     = 1;
output_speedup    = 1;
internal_speedup  = 1.0;
vc_busy_when_full = 0;


//granulaity
latency_thres=20000.0;
deadlock_warn_timeout=20000;
traceStretch=3;

//gating
doGating=0;
sleepThreshold=40;
breakEvenThreshold=80;



//Syn Traffic
sim_type=latency;
traffic=uniform;
packet_size = 1;
sample_period=50000;
warmup_periods=1;
max_samples=12;
injection_rate=0.01;

creditDelays=creditDelays({0,0,0,0});
routingDelays=routingDelays({15,15,15,15});
vcAllocDelays=vcAllocDelays({15,15,15,15});
swAllocDelays=swAllocDelays({15,15,15,15});
stFinalDelays=stFinalDelays({15,15,15,15});

isAsync=isAsync({0,0,0,0});
isMetaUnstable=isMetaUnstable({0,0,0,0});

creditDelayStdDevs=creditDelayStdDevs({0,0,0,0});
routingDelayStdDevs=routingDelayStdDevs({0,0,0,0});
vcAllocDelayStdDevs=vcAllocDelayStdDevs({0,0,0,0});
swAllocDelayStdDevs=swAllocDelayStdDevs({0,0,0,0});
stFinalDelayStdDevs=stFinalDelayStdDevs({0,0,0,0});

  
swAllocThresholds=swAllocThresholds({1,1,1,1});
swAllocThresholdStdDevs=swAllocThresholdStdDevs({0,0,0,0});
swAllocMetaStableThresholds=swAllocMetaStableThresholds({1,1,1,1});
swAllocMetaStableMaxPenalities=swAllocMetaStableMaxPenalities({0,0,0,0});

END Configuration File: chiplet16/chip15
BEGIN Configuration File: chiplet16/chip16
//topology
topology = mesh;
k = 2;
n = 2;
type = chip;
start_point = 54;
cnum=16;
// Routing
routing_function = dor;

// Flow control
num_vcs     = 2;
vc_buf_size = 8;
wait_for_tail_credit = 1;
hold_switch_for_packet = 1;

// Router architecture
vc_allocator = islip;
sw_allocator = islip;
alloc_iters  = 1;

credit_delay   = 0;
routing_delay  = 1;
vc_alloc_delay = 1;
sw_alloc_delay = 1;
st_final_delay = 1;

input_speedup     = 1;
output_speedup    = 1;
internal_speedup  = 1.0;
vc_busy_when_full = 0;


//granulaity
latency_thres=20000.0;
deadlock_warn_timeout=20000;
traceStretch=3;

//gating
doGating=0;
sleepThreshold=40;
breakEvenThreshold=80;



//Syn Traffic
sim_type=latency;
traffic=uniform;
packet_size = 1;
sample_period=50000;
warmup_periods=1;
max_samples=12;
injection_rate=0.01;

creditDelays=creditDelays({0,0,0,0});
routingDelays=routingDelays({15,15,15,15});
vcAllocDelays=vcAllocDelays({15,15,15,15});
swAllocDelays=swAllocDelays({15,15,15,15});
stFinalDelays=stFinalDelays({15,15,15,15});

isAsync=isAsync({0,0,0,0});
isMetaUnstable=isMetaUnstable({0,0,0,0});

creditDelayStdDevs=creditDelayStdDevs({0,0,0,0});
routingDelayStdDevs=routingDelayStdDevs({0,0,0,0});
vcAllocDelayStdDevs=vcAllocDelayStdDevs({0,0,0,0});
swAllocDelayStdDevs=swAllocDelayStdDevs({0,0,0,0});
stFinalDelayStdDevs=stFinalDelayStdDevs({0,0,0,0});

  
swAllocThresholds=swAllocThresholds({1,1,1,1});
swAllocThresholdStdDevs=swAllocThresholdStdDevs({0,0,0,0});
swAllocMetaStableThresholds=swAllocMetaStableThresholds({1,1,1,1});
swAllocMetaStableMaxPenalities=swAllocMetaStableMaxPenalities({0,0,0,0});

END Configuration File: chiplet16/chip16
rid:0 add output _25chan1
rid:0 add input _25chan0
rid:1 add output _25chan3
rid:1 add input _25chan2
rid:2 add output _25chan9
rid:2 add input _25chan8
rid:3 add output _25chan11
rid:3 add input _25chan10
rid:4 add output _25chan17
rid:4 add input _25chan16
rid:5 add output _25chan19
rid:5 add input _25chan18
rid:6 add output _25chan25
rid:6 add input _25chan24
rid:7 add output _25chan27
rid:7 add input _25chan26
rid:8 add output _25chan5
rid:8 add input _25chan4
rid:9 add output _25chan7
rid:9 add input _25chan6
rid:10 add output _25chan13
rid:10 add input _25chan12
rid:11 add output _25chan15
rid:11 add input _25chan14
rid:12 add output _25chan21
rid:12 add input _25chan20
rid:13 add output _25chan23
rid:13 add input _25chan22
rid:14 add output _25chan29
rid:14 add input _25chan28
rid:15 add output _25chan31
rid:15 add input _25chan30
rid:16 add output _25chan37
rid:16 add input _25chan36
rid:17 add output _25chan39
rid:17 add input _25chan38
rid:18 add output _25chan45
rid:18 add input _25chan44
rid:19 add output _25chan47
rid:19 add input _25chan46
rid:20 add output _25chan49
rid:20 add input _25chan48
rid:21 add output _25chan51
rid:21 add input _25chan50
rid:22 add output _25chan57
rid:22 add input _25chan56
rid:23 add output _25chan59
rid:23 add input _25chan58
rid:24 add uselessoutput chan256
rid:25 add uselessoutput chan256
rid:26 add uselessoutput chan256
rid:27 add uselessoutput chan256
rid:28 add output _25chan53
rid:28 add input _25chan52
rid:29 add output _25chan55
rid:29 add input _25chan54
rid:30 add output _25chan61
rid:30 add input _25chan60
rid:31 add output _25chan63
rid:31 add input _25chan62
rid:32 add output _25chan65
rid:32 add input _25chan64
rid:33 add output _25chan67
rid:33 add input _25chan66
rid:34 add output _25chan73
rid:34 add input _25chan72
rid:35 add output _25chan75
rid:35 add input _25chan74
rid:36 add output _25chan81
rid:36 add input _25chan80
rid:37 add output _25chan83
rid:37 add input _25chan82
rid:38 add output _25chan89
rid:38 add input _25chan88
rid:39 add output _25chan91
rid:39 add input _25chan90
rid:40 add output _25chan69
rid:40 add input _25chan68
rid:41 add output _25chan71
rid:41 add input _25chan70
rid:42 add output _25chan77
rid:42 add input _25chan76
rid:43 add output _25chan79
rid:43 add input _25chan78
rid:44 add output _25chan85
rid:44 add input _25chan84
rid:45 add output _25chan87
rid:45 add input _25chan86
rid:46 add output _25chan93
rid:46 add input _25chan92
rid:47 add output _25chan95
rid:47 add input _25chan94
rid:48 add output _25chan97
rid:48 add input _25chan96
rid:49 add output _25chan99
rid:49 add input _25chan98
rid:50 add output _25chan105
rid:50 add input _25chan104
rid:51 add output _25chan107
rid:51 add input _25chan106
rid:52 add output _25chan113
rid:52 add input _25chan112
rid:53 add output _25chan115
rid:53 add input _25chan114
rid:54 add output _25chan121
rid:54 add input _25chan120
rid:55 add output _25chan123
rid:55 add input _25chan122
rid:56 add output _25chan101
rid:56 add input _25chan100
rid:57 add output _25chan103
rid:57 add input _25chan102
rid:58 add output _25chan109
rid:58 add input _25chan108
rid:59 add output _25chan111
rid:59 add input _25chan110
rid:60 add output _25chan117
rid:60 add input _25chan116
rid:61 add output _25chan119
rid:61 add input _25chan118
rid:62 add output _25chan125
rid:62 add input _25chan124
rid:63 add output _25chan127
rid:63 add input _25chan126
rid:0 add output _25chan0
rid:0 add input _25chan1
rid:1 add output _25chan2
rid:1 add input _25chan3
rid:2 add output _25chan4
rid:2 add input _25chan5
rid:3 add output _25chan6
rid:3 add input _25chan7
rid:0 add output _25chan8
rid:0 add input _25chan9
rid:1 add output _25chan10
rid:1 add input _25chan11
rid:2 add output _25chan12
rid:2 add input _25chan13
rid:3 add output _25chan14
rid:3 add input _25chan15
rid:0 add output _25chan16
rid:0 add input _25chan17
rid:1 add output _25chan18
rid:1 add input _25chan19
rid:2 add output _25chan20
rid:2 add input _25chan21
rid:3 add output _25chan22
rid:3 add input _25chan23
rid:0 add output _25chan24
rid:0 add input _25chan25
rid:1 add output _25chan26
rid:1 add input _25chan27
rid:2 add output _25chan28
rid:2 add input _25chan29
rid:3 add output _25chan30
rid:3 add input _25chan31
rid:0 add output _25chan32
rid:0 add input _25chan33
rid:1 add output _25chan34
rid:1 add input _25chan35
rid:2 add output _25chan36
rid:2 add input _25chan37
rid:3 add output _25chan38
rid:3 add input _25chan39
rid:0 add output _25chan40
rid:0 add input _25chan41
rid:1 add output _25chan42
rid:1 add input _25chan43
rid:2 add output _25chan44
rid:2 add input _25chan45
rid:3 add output _25chan46
rid:3 add input _25chan47
rid:0 add output _25chan48
rid:0 add input _25chan49
rid:1 add output _25chan50
rid:1 add input _25chan51
rid:2 add output _25chan52
rid:2 add input _25chan53
rid:3 add output _25chan54
rid:3 add input _25chan55
rid:0 add output _25chan56
rid:0 add input _25chan57
rid:1 add output _25chan58
rid:1 add input _25chan59
rid:2 add output _25chan60
rid:2 add input _25chan61
rid:3 add output _25chan62
rid:3 add input _25chan63
rid:0 add output _25chan64
rid:0 add input _25chan65
rid:1 add output _25chan66
rid:1 add input _25chan67
rid:2 add output _25chan68
rid:2 add input _25chan69
rid:3 add output _25chan70
rid:3 add input _25chan71
rid:0 add output _25chan72
rid:0 add input _25chan73
rid:1 add output _25chan74
rid:1 add input _25chan75
rid:2 add output _25chan76
rid:2 add input _25chan77
rid:3 add output _25chan78
rid:3 add input _25chan79
rid:0 add output _25chan80
rid:0 add input _25chan81
rid:1 add output _25chan82
rid:1 add input _25chan83
rid:2 add output _25chan84
rid:2 add input _25chan85
rid:3 add output _25chan86
rid:3 add input _25chan87
rid:0 add output _25chan88
rid:0 add input _25chan89
rid:1 add output _25chan90
rid:1 add input _25chan91
rid:2 add output _25chan92
rid:2 add input _25chan93
rid:3 add output _25chan94
rid:3 add input _25chan95
rid:0 add output _25chan96
rid:0 add input _25chan97
rid:1 add output _25chan98
rid:1 add input _25chan99
rid:2 add output _25chan100
rid:2 add input _25chan101
rid:3 add output _25chan102
rid:3 add input _25chan103
rid:0 add output _25chan104
rid:0 add input _25chan105
rid:1 add output _25chan106
rid:1 add input _25chan107
rid:2 add output _25chan108
rid:2 add input _25chan109
rid:3 add output _25chan110
rid:3 add input _25chan111
rid:0 add output _25chan112
rid:0 add input _25chan113
rid:1 add output _25chan114
rid:1 add input _25chan115
rid:2 add output _25chan116
rid:2 add input _25chan117
rid:3 add output _25chan118
rid:3 add input _25chan119
rid:0 add output _25chan120
rid:0 add input _25chan121
rid:1 add output _25chan122
rid:1 add input _25chan123
rid:2 add output _25chan124
rid:2 add input _25chan125
rid:3 add output _25chan126
rid:3 add input _25chan127

Tick: 0M
===== Time: 5000 =====
Class 0:
Minimum packet latency = 62
Average packet latency = 1072.05
Maximum packet latency = 4349
Minimum network latency = 63
Average network latency = 907.267
Maximum network latency = 4001
Slowest packet = 416
Minimum flit latency = 63
Average flit latency = 907.267
Maximum flit latency = 4001
Slowest flit = 343
Minimum fragmentation = 0
Average fragmentation = 0
Maximum fragmentation = 0
Minimum injected packet rate = 0 (at node 0)
Average injected packet rate = 0.00352813
Maximum injected packet rate = 0.0128 (at node 71)
Minimum accepted packet rate = 0 (at node 0)
Average accepted packet rate = 0.00279375
Maximum accepted packet rate = 0.0122 (at node 70)
Minimum injected flit rate = 0 (at node 0)
Average injected flit rate = 0.00352813
Maximum injected flit rate = 0.0128 (at node 71)
Minimum accepted flit rate = 0 (at node 0)
Average accepted flit rate = 0.00279375
Maximum accepted flit rate = 0.0122 (at node 70)
Total number of injected packets = 2258
Total number of injected flits = 2258
Average injected packet length = 1
Total number of accepted packets = 1788
Total number of accepted flits = 1788
Average accepted packet length = 1
Total in-flight flits = 593 (0 measured)
class 0 latency change    = 1
class 0 throughput change = 1
Warmed up ...Time used is 5000 cycles
===== Time: 10000 =====
Class 0:
Minimum packet latency = 62
Average packet latency = 2317.89
Maximum packet latency = 8474
Minimum network latency = 63
Average network latency = 1013.46
Maximum network latency = 3888
Slowest packet = 2391
Minimum flit latency = 63
Average flit latency = 1200.62
Maximum flit latency = 5796
Slowest flit = 1951
Minimum fragmentation = 0
Average fragmentation = 0
Maximum fragmentation = 0
Minimum injected packet rate = 0 (at node 0)
Average injected packet rate = 0.00305
Maximum injected packet rate = 0.0128 (at node 104)
Minimum accepted packet rate = 0 (at node 0)
Average accepted packet rate = 0.00303594
Maximum accepted packet rate = 0.0116 (at node 71)
Minimum injected flit rate = 0 (at node 0)
Average injected flit rate = 0.00305
Maximum injected flit rate = 0.0128 (at node 104)
Minimum accepted flit rate = 0 (at node 0)
Average accepted flit rate = 0.00303594
Maximum accepted flit rate = 0.0116 (at node 71)
Total number of injected packets = 1952
Total number of injected flits = 1952
Average injected packet length = 1
Total number of accepted packets = 1943
Total number of accepted flits = 1943
Average accepted packet length = 1
Total in-flight flits = 684 (630 measured)
class 0 latency change    = 0.53749
class 0 throughput change = 0.0797735
===== Time: 15000 =====
Class 0:
Minimum packet latency = 62
Average packet latency = 3098.32
Maximum packet latency = 12044
Minimum network latency = 63
Average network latency = 1132.39
Maximum network latency = 5104
Slowest packet = 2391
Minimum flit latency = 63
Average flit latency = 1220.58
Maximum flit latency = 5796
Slowest flit = 1951
Minimum fragmentation = 0
Average fragmentation = 0
Maximum fragmentation = 0
Minimum injected packet rate = 0 (at node 0)
Average injected packet rate = 0.00300156
Maximum injected packet rate = 0.0115 (at node 103)
Minimum accepted packet rate = 0 (at node 0)
Average accepted packet rate = 0.00300078
Maximum accepted packet rate = 0.013 (at node 66)
Minimum injected flit rate = 0 (at node 0)
Average injected flit rate = 0.00300156
Maximum injected flit rate = 0.0115 (at node 103)
Minimum accepted flit rate = 0 (at node 0)
Average accepted flit rate = 0.00300078
Maximum accepted flit rate = 0.013 (at node 66)
Total number of injected packets = 3842
Total number of injected flits = 3842
Average injected packet length = 1
Total number of accepted packets = 3841
Total number of accepted flits = 3841
Average accepted packet length = 1
Total in-flight flits = 773 (751 measured)
class 0 latency change    = 0.251888
class 0 throughput change = 0.0117157
===== Time: 20000 =====
Class 0:
Minimum packet latency = 62
Average packet latency = 3781.74
Maximum packet latency = 16734
Minimum network latency = 63
Average network latency = 1157.38
Maximum network latency = 6702
Slowest packet = 2391
Minimum flit latency = 63
Average flit latency = 1218.81
Maximum flit latency = 6702
Slowest flit = 4574
Minimum fragmentation = 0
Average fragmentation = 0
Maximum fragmentation = 0
Minimum injected packet rate = 0 (at node 0)
Average injected packet rate = 0.00298073
Maximum injected packet rate = 0.0115333 (at node 71)
Minimum accepted packet rate = 0 (at node 0)
Average accepted packet rate = 0.00298906
Maximum accepted packet rate = 0.0131333 (at node 66)
Minimum injected flit rate = 0 (at node 0)
Average injected flit rate = 0.00298073
Maximum injected flit rate = 0.0115333 (at node 71)
Minimum accepted flit rate = 0 (at node 0)
Average accepted flit rate = 0.00298906
Maximum accepted flit rate = 0.0131333 (at node 66)
Total number of injected packets = 5723
Total number of injected flits = 5723
Average injected packet length = 1
Total number of accepted packets = 5739
Total number of accepted flits = 5739
Average accepted packet length = 1
Total in-flight flits = 806 (806 measured)
class 0 latency change    = 0.180716
class 0 throughput change = 0.00392054
===== Time: 25000 =====
Class 0:
Minimum packet latency = 62
Average packet latency = 4521
Maximum packet latency = 19569
Minimum network latency = 63
Average network latency = 1182.13
Maximum network latency = 6702
Slowest packet = 2391
Minimum flit latency = 63
Average flit latency = 1226.18
Maximum flit latency = 6702
Slowest flit = 4574
Minimum fragmentation = 0
Average fragmentation = 0
Maximum fragmentation = 0
Minimum injected packet rate = 0 (at node 0)
Average injected packet rate = 0.00300156
Maximum injected packet rate = 0.01185 (at node 71)
Minimum accepted packet rate = 0 (at node 0)
Average accepted packet rate = 0.00299609
Maximum accepted packet rate = 0.0129 (at node 66)
Minimum injected flit rate = 0 (at node 0)
Average injected flit rate = 0.00300156
Maximum injected flit rate = 0.01185 (at node 71)
Minimum accepted flit rate = 0 (at node 0)
Average accepted flit rate = 0.00299609
Maximum accepted flit rate = 0.0129 (at node 66)
Total number of injected packets = 7684
Total number of injected flits = 7684
Average injected packet length = 1
Total number of accepted packets = 7670
Total number of accepted flits = 7670
Average accepted packet length = 1
Total in-flight flits = 889 (889 measured)
class 0 latency change    = 0.163517
class 0 throughput change = 0.00234681
===== Time: 30000 =====
Class 0:
Minimum packet latency = 62
Average packet latency = 5245.29
Maximum packet latency = 23629
Minimum network latency = 63
Average network latency = 1192.01
Maximum network latency = 6702
Slowest packet = 2391
Minimum flit latency = 63
Average flit latency = 1226.49
Maximum flit latency = 6702
Slowest flit = 4574
Minimum fragmentation = 0
Average fragmentation = 0
Maximum fragmentation = 0
Minimum injected packet rate = 0 (at node 0)
Average injected packet rate = 0.00301125
Maximum injected packet rate = 0.01196 (at node 71)
Minimum accepted packet rate = 0 (at node 0)
Average accepted packet rate = 0.00301
Maximum accepted packet rate = 0.01276 (at node 66)
Minimum injected flit rate = 0 (at node 0)
Average injected flit rate = 0.00301125
Maximum injected flit rate = 0.01196 (at node 71)
Minimum accepted flit rate = 0 (at node 0)
Average accepted flit rate = 0.00301
Maximum accepted flit rate = 0.01276 (at node 66)
Total number of injected packets = 9636
Total number of injected flits = 9636
Average injected packet length = 1
Total number of accepted packets = 9632
Total number of accepted flits = 9632
Average accepted packet length = 1
Total in-flight flits = 948 (948 measured)
class 0 latency change    = 0.138085
class 0 throughput change = 0.00462002
===== Time: 35000 =====
Class 0:
Minimum packet latency = 62
Average packet latency = 5904.46
Maximum packet latency = 26238
Minimum network latency = 63
Average network latency = 1199.82
Maximum network latency = 6702
Slowest packet = 2391
Minimum flit latency = 63
Average flit latency = 1228.15
Maximum flit latency = 6702
Slowest flit = 4574
Minimum fragmentation = 0
Average fragmentation = 0
Maximum fragmentation = 0
Minimum injected packet rate = 0 (at node 0)
Average injected packet rate = 0.00301302
Maximum injected packet rate = 0.0116 (at node 71)
Minimum accepted packet rate = 0 (at node 0)
Average accepted packet rate = 0.00301016
Maximum accepted packet rate = 0.0129 (at node 66)
Minimum injected flit rate = 0 (at node 0)
Average injected flit rate = 0.00301302
Maximum injected flit rate = 0.0116 (at node 71)
Minimum accepted flit rate = 0 (at node 0)
Average accepted flit rate = 0.00301016
Maximum accepted flit rate = 0.0129 (at node 66)
Total number of injected packets = 11570
Total number of injected flits = 11570
Average injected packet length = 1
Total number of accepted packets = 11559
Total number of accepted flits = 11559
Average accepted packet length = 1
Total in-flight flits = 1060 (1060 measured)
class 0 latency change    = 0.111638
class 0 throughput change = 5.19076e-05
===== Time: 40000 =====
Class 0:
Minimum packet latency = 62
Average packet latency = 6573.1
Maximum packet latency = 28093
Minimum network latency = 63
Average network latency = 1207.31
Maximum network latency = 6702
Slowest packet = 2391
Minimum flit latency = 63
Average flit latency = 1231.29
Maximum flit latency = 6702
Slowest flit = 4574
Minimum fragmentation = 0
Average fragmentation = 0
Maximum fragmentation = 0
Minimum injected packet rate = 0 (at node 0)
Average injected packet rate = 0.00300915
Maximum injected packet rate = 0.0114286 (at node 71)
Minimum accepted packet rate = 0 (at node 0)
Average accepted packet rate = 0.0030058
Maximum accepted packet rate = 0.0126286 (at node 66)
Minimum injected flit rate = 0 (at node 0)
Average injected flit rate = 0.00300915
Maximum injected flit rate = 0.0114286 (at node 71)
Minimum accepted flit rate = 0 (at node 0)
Average accepted flit rate = 0.0030058
Maximum accepted flit rate = 0.0126286 (at node 66)
Total number of injected packets = 13481
Total number of injected flits = 13481
Average injected packet length = 1
Total number of accepted packets = 13466
Total number of accepted flits = 13466
Average accepted packet length = 1
Total in-flight flits = 1136 (1136 measured)
class 0 latency change    = 0.101723
class 0 throughput change = 0.00144809
===== Time: 45000 =====
Class 0:
Minimum packet latency = 62
Average packet latency = 7290.54
Maximum packet latency = 36405
Minimum network latency = 63
Average network latency = 1215.15
Maximum network latency = 6702
Slowest packet = 2391
Minimum flit latency = 63
Average flit latency = 1235.91
Maximum flit latency = 6702
Slowest flit = 4574
Minimum fragmentation = 0
Average fragmentation = 0
Maximum fragmentation = 0
Minimum injected packet rate = 0 (at node 0)
Average injected packet rate = 0.00299609
Maximum injected packet rate = 0.0113 (at node 71)
Minimum accepted packet rate = 0 (at node 0)
Average accepted packet rate = 0.00299434
Maximum accepted packet rate = 0.012775 (at node 66)
Minimum injected flit rate = 0 (at node 0)
Average injected flit rate = 0.00299609
Maximum injected flit rate = 0.0113 (at node 71)
Minimum accepted flit rate = 0 (at node 0)
Average accepted flit rate = 0.00299434
Maximum accepted flit rate = 0.012775 (at node 66)
Total number of injected packets = 15340
Total number of injected flits = 15340
Average injected packet length = 1
Total number of accepted packets = 15331
Total number of accepted flits = 15331
Average accepted packet length = 1
Total in-flight flits = 1221 (1221 measured)
class 0 latency change    = 0.0984079
class 0 throughput change = 0.00382978
===== Time: 50000 =====
Class 0:
Minimum packet latency = 62
Average packet latency = 7961.4
Maximum packet latency = 36405
Minimum network latency = 63
Average network latency = 1222.53
Maximum network latency = 8622
Slowest packet = 2391
Minimum flit latency = 63
Average flit latency = 1240.93
Maximum flit latency = 8622
Slowest flit = 16411
Minimum fragmentation = 0
Average fragmentation = 0
Maximum fragmentation = 0
Minimum injected packet rate = 0 (at node 0)
Average injected packet rate = 0.00296181
Maximum injected packet rate = 0.0110889 (at node 71)
Minimum accepted packet rate = 0 (at node 0)
Average accepted packet rate = 0.00296181
Maximum accepted packet rate = 0.0126444 (at node 66)
Minimum injected flit rate = 0 (at node 0)
Average injected flit rate = 0.00296181
Maximum injected flit rate = 0.0110889 (at node 71)
Minimum accepted flit rate = 0 (at node 0)
Average accepted flit rate = 0.00296181
Maximum accepted flit rate = 0.0126444 (at node 66)
Total number of injected packets = 17060
Total number of injected flits = 17060
Average injected packet length = 1
Total number of accepted packets = 17060
Total number of accepted flits = 17060
Average accepted packet length = 1
Total in-flight flits = 1322 (1322 measured)
class 0 latency change    = 0.084264
class 0 throughput change = 0.0109833
===== Time: 55000 =====
Class 0:
Minimum packet latency = 62
Average packet latency = 8723.12
Maximum packet latency = 40606
Minimum network latency = 63
Average network latency = 1232.82
Maximum network latency = 13975
Slowest packet = 2391
Minimum flit latency = 63
Average flit latency = 1249.05
Maximum flit latency = 13975
Slowest flit = 16416
Minimum fragmentation = 0
Average fragmentation = 0
Maximum fragmentation = 0
Minimum injected packet rate = 0 (at node 0)
Average injected packet rate = 0.00296797
Maximum injected packet rate = 0.01122 (at node 71)
Minimum accepted packet rate = 0 (at node 0)
Average accepted packet rate = 0.00296391
Maximum accepted packet rate = 0.01266 (at node 66)
Minimum injected flit rate = 0 (at node 0)
Average injected flit rate = 0.00296797
Maximum injected flit rate = 0.01122 (at node 71)
Minimum accepted flit rate = 0 (at node 0)
Average accepted flit rate = 0.00296391
Maximum accepted flit rate = 0.01266 (at node 66)
Total number of injected packets = 18995
Total number of injected flits = 18995
Average injected packet length = 1
Total number of accepted packets = 18969
Total number of accepted flits = 18969
Average accepted packet length = 1
Total in-flight flits = 1413 (1413 measured)
class 0 latency change    = 0.0873216
class 0 throughput change = 0.000708759
Draining remaining packets ...
Class 0:
Remaining flits: 7635 7755 7792 7836 7845 7868 7903 7945 8066 8119 [...] (1062 flits)
Measured flits: 7635 7755 7792 7836 7845 7868 7903 7945 8066 8119 [...] (1062 flits)
Class 0:
Remaining flits: 8066 8119 8123 8156 8158 8186 8217 8266 8277 8292 [...] (854 flits)
Measured flits: 8066 8119 8123 8156 8158 8186 8217 8266 8277 8292 [...] (854 flits)
Class 0:
Remaining flits: 8156 8186 8277 8389 8428 8518 8572 8723 8752 8815 [...] (811 flits)
Measured flits: 8156 8186 8277 8389 8428 8518 8572 8723 8752 8815 [...] (811 flits)
Class 0:
Remaining flits: 8723 8815 8875 8901 8955 8999 9072 9106 9108 9194 [...] (779 flits)
Measured flits: 8723 8815 8875 8901 8955 8999 9072 9106 9108 9194 [...] (779 flits)
Class 0:
Remaining flits: 8999 9106 9108 9194 9283 9284 9325 9345 9440 9461 [...] (755 flits)
Measured flits: 8999 9106 9108 9194 9283 9284 9325 9345 9440 9461 [...] (755 flits)
Class 0:
Remaining flits: 9345 9507 9533 9646 9653 9719 9735 9846 9884 9906 [...] (720 flits)
Measured flits: 9345 9507 9533 9646 9653 9719 9735 9846 9884 9906 [...] (720 flits)
Class 0:
Remaining flits: 9943 9993 10063 10081 10247 10262 10275 10280 10304 10320 [...] (687 flits)
Measured flits: 9943 9993 10063 10081 10247 10262 10275 10280 10304 10320 [...] (687 flits)
Class 0:
Remaining flits: 10275 10304 10320 10342 10378 10509 10552 10555 10597 10661 [...] (657 flits)
Measured flits: 10275 10304 10320 10342 10378 10509 10552 10555 10597 10661 [...] (657 flits)
Class 0:
Remaining flits: 10668 10769 10849 10912 10936 10966 11033 11053 11083 11114 [...] (626 flits)
Measured flits: 10668 10769 10849 10912 10936 10966 11033 11053 11083 11114 [...] (626 flits)
Class 0:
Remaining flits: 10966 11033 11083 11114 11120 11208 11372 11463 11512 11545 [...] (592 flits)
Measured flits: 10966 11033 11083 11114 11120 11208 11372 11463 11512 11545 [...] (592 flits)
Class 0:
Remaining flits: 11695 11698 11719 11720 11870 11902 11925 11965 11991 12003 [...] (555 flits)
Measured flits: 11695 11698 11719 11720 11870 11902 11925 11965 11991 12003 [...] (555 flits)
Class 0:
Remaining flits: 11902 11991 12038 12050 12073 12155 12156 12183 12187 12218 [...] (530 flits)
Measured flits: 11902 11991 12038 12050 12073 12155 12156 12183 12187 12218 [...] (530 flits)
Class 0:
Remaining flits: 12331 12375 12395 12401 12411 12530 12545 12559 12581 12594 [...] (506 flits)
Measured flits: 12331 12375 12395 12401 12411 12530 12545 12559 12581 12594 [...] (506 flits)
Class 0:
Remaining flits: 12741 12838 12890 13084 13105 13145 13185 13248 13272 13297 [...] (478 flits)
Measured flits: 12741 12838 12890 13084 13105 13145 13185 13248 13272 13297 [...] (478 flits)
Class 0:
Remaining flits: 13518 13595 13623 13659 13707 13718 13730 13760 13788 13796 [...] (450 flits)
Measured flits: 13518 13595 13623 13659 13707 13718 13730 13760 13788 13796 [...] (450 flits)
Class 0:
Remaining flits: 13796 13897 13919 13970 14039 14082 14118 14119 14128 14178 [...] (427 flits)
Measured flits: 13796 13897 13919 13970 14039 14082 14118 14119 14128 14178 [...] (427 flits)
Class 0:
Remaining flits: 14300 14340 14407 14419 14431 14463 14468 14471 14475 14486 [...] (405 flits)
Measured flits: 14300 14340 14407 14419 14431 14463 14468 14471 14475 14486 [...] (405 flits)
Class 0:
Remaining flits: 14620 14627 14642 14647 14666 14672 14715 14822 14853 14857 [...] (384 flits)
Measured flits: 14620 14627 14642 14647 14666 14672 14715 14822 14853 14857 [...] (384 flits)
Class 0:
Remaining flits: 14937 14941 14970 15005 15008 15042 15066 15151 15274 15279 [...] (358 flits)
Measured flits: 14937 14941 14970 15005 15008 15042 15066 15151 15274 15279 [...] (358 flits)
Class 0:
Remaining flits: 15319 15538 15999 16022 16037 16100 16135 16153 16176 16186 [...] (329 flits)
Measured flits: 15319 15538 15999 16022 16037 16100 16135 16153 16176 16186 [...] (329 flits)
Class 0:
Remaining flits: 16393 16424 16455 16473 16552 16578 16585 16592 16603 16611 [...] (304 flits)
Measured flits: 16393 16424 16455 16473 16552 16578 16585 16592 16603 16611 [...] (304 flits)
Class 0:
Remaining flits: 16713 16721 16731 16902 16983 17055 17075 17093 17108 17112 [...] (282 flits)
Measured flits: 16713 16721 16731 16902 16983 17055 17075 17093 17108 17112 [...] (282 flits)
Class 0:
Remaining flits: 17253 17324 17361 17450 17452 17463 17509 17517 17559 17561 [...] (261 flits)
Measured flits: 17253 17324 17361 17450 17452 17463 17509 17517 17559 17561 [...] (261 flits)
Class 0:
Remaining flits: 17735 17767 17800 17845 17846 17858 17925 17934 17963 17968 [...] (239 flits)
Measured flits: 17735 17767 17800 17845 17846 17858 17925 17934 17963 17968 [...] (239 flits)
Class 0:
Remaining flits: 18087 18115 18135 18239 18259 18281 18339 18365 18378 18414 [...] (216 flits)
Measured flits: 18087 18115 18135 18239 18259 18281 18339 18365 18378 18414 [...] (216 flits)
Class 0:
Remaining flits: 18608 18639 18680 18737 18775 18778 18803 18818 18819 18875 [...] (186 flits)
Measured flits: 18608 18639 18680 18737 18775 18778 18803 18818 18819 18875 [...] (186 flits)
Class 0:
Remaining flits: 19005 19102 19104 19108 19127 19131 19151 19171 19187 19210 [...] (165 flits)
Measured flits: 19005 19102 19104 19108 19127 19131 19151 19171 19187 19210 [...] (165 flits)
Class 0:
Remaining flits: 19336 19445 19476 19500 19545 19548 19581 19610 19673 19697 [...] (140 flits)
Measured flits: 19336 19445 19476 19500 19545 19548 19581 19610 19673 19697 [...] (140 flits)
Class 0:
Remaining flits: 19885 19922 20103 20105 20131 20135 20158 20170 20196 20199 [...] (114 flits)
Measured flits: 19885 19922 20103 20105 20131 20135 20158 20170 20196 20199 [...] (114 flits)
Class 0:
Remaining flits: 20251 20336 20348 20363 20544 20581 20582 20595 20611 20640 [...] (90 flits)
Measured flits: 20251 20336 20348 20363 20544 20581 20582 20595 20611 20640 [...] (90 flits)
Class 0:
Remaining flits: 20823 20896 20949 20952 21047 21060 21076 21090 21143 21164 [...] (63 flits)
Measured flits: 20823 20896 20949 20952 21047 21060 21076 21090 21143 21164 [...] (63 flits)
Class 0:
Remaining flits: 21314 21386 21437 21456 21490 21499 21546 21561 21577 21588 [...] (38 flits)
Measured flits: 21314 21386 21437 21456 21490 21499 21546 21561 21577 21588 [...] (38 flits)
Class 0:
Remaining flits: 21577 21588 21663 21672 21752 21818 21905 21918 21929 21932 [...] (18 flits)
Measured flits: 21577 21588 21663 21672 21752 21818 21905 21918 21929 21932 [...] (18 flits)
Time taken is 88790 cycles
====== Traffic class 0 ======

Total number of flits generated = 22170, changed lanes = 0
Overall minimum packet latency = 62 (1 samples)
Overall average packet latency = 10066.7 (1 samples)
Overall maximum packet latency = 41860 (1 samples)
Overall minimum network latency = 63 (1 samples)
Overall average network latency = 1227.16 (1 samples)
Overall maximum network latency = 14920 (1 samples)
Overall minimum flit latency = 63 (1 samples)
Overall average flit latency = 1242.42 (1 samples)
Overall maximum flit latency = 14920 (1 samples)
Overall minimum fragmentation = 0 (1 samples)
Overall average fragmentation = 0 (1 samples)
Overall maximum fragmentation = 0 (1 samples)
Overall minimum injected packet rate = 0 (1 samples)
Overall average injected packet rate = 0.00296797 (1 samples)
Overall maximum injected packet rate = 0.01122 (1 samples)
Overall minimum accepted packet rate = 0 (1 samples)
Overall average accepted packet rate = 0.00296391 (1 samples)
Overall maximum accepted packet rate = 0.01266 (1 samples)
Overall minimum injected flit rate = 0 (1 samples)
Overall average injected flit rate = 0.00296797 (1 samples)
Overall maximum injected flit rate = 0.01122 (1 samples)
Overall minimum accepted flit rate = 0 (1 samples)
Overall average accepted flit rate = 0.00296391 (1 samples)
Overall maximum accepted flit rate = 0.01266 (1 samples)
Overall average injected packet size = 1 (1 samples)
Overall average accepted packet size = 1 (1 samples)
Overall average hops = 8.00748 (1 samples)
Overall throughput of the network (flits/cycle) = 0.4434
Overall throughput of the network (packets/cycle) = 0.4434
CSV Result Header , avgFLat,avgFInjRate
CSV Result ,1242.42,0.00296797

Power Report Header, Frequency, Time, StaticIQ, DynamicIQ, StaticVC, DynamicVC, StaticSA, DynamicSA, StaticST, DynamicST, StaticLink, DynamicLink, NoFlits, ePerFlit
Power Report,3.9e+08,88790,0.131875,0.00759223,0.00749762,0.000222589,0.00224928,0.000200504,0.477597,0.00253372,0.0905466,0.00517251,22170,7.4524e-09

*****************************************
Total run time 32.9563
generate:0x7fff3ed915e0
delete:0x7fff3ed915e0
L = 2 K = 8.1 M = 2 N = 1
-----------------------------------------
- OCN Power Summary
- Completion Time:         88790
- Flit Widths:            64
- Channel Wire Power:      0.696817
- Channel Clock Power:     1.46183
- Channel Retiming Power:  0.00865757
- Channel Leakage Power:   0.551082
- Input Read Power:        0.0219827
- Input Write Power:       0.0219827
- Input Leakage Power:     0.113246
- Switch Power:            0.0476306
- Switch Control Power:    0.0246806
- Switch Leakage Power:    0.771052
- Output DFF Power:        0.00512348
- Output Clk Power:        0.727126
- Output Control Power:    0.00264414
- Total Power:             4.45385
-----------------------------------------

-----------------------------------------
- OCN Area Summary
- Channel Area:  0.109536
- Switch  Area:  0.241592
- Input  Area:   0.120796
- Output  Area:  0.0201327
- Total Area:    0.492056
-----------------------------------------
CSV Power Result Header , Completion Time, Channel Wire, Channel Clock, Channel Retiming, Channel Leakage, Input Read, Input Write, Input Leakage, Switch Power, Switch Control, Switch Leakage, Output DFF, Output Clk, Output Control
CSV Power Result , 88790, 0.696817, 1.46183, 0.00865757, 0.551082, 0.0219827, 0.0219827, 0.113246, 0.0476306, 0.0246806, 0.771052, 0.00512348, 0.727126, 0.00264414
delete:0x7fff3ed915e0
delete:0x7fff3ed915e0
delete:0x7fff3ed915e0
delete:0x7fff3ed915e0
delete:0x7fff3ed915e0
delete:0x7fff3ed915e0
delete:0x7fff3ed915e0
delete:0x7fff3ed915e0
delete:0x7fff3ed915e0
delete:0x7fff3ed915e0
delete:0x7fff3ed915e0
delete:0x7fff3ed915e0
delete:0x7fff3ed915e0
delete:0x7fff3ed915e0
delete:0x7fff3ed915e0
delete:0x7fff3ed915e0
delete:0x7fff3ed915e0
delete:0x7fff3ed915e0
