generate:0x7ffdfafd4a20
generate:0x7ffdfafd4ad8
generate:0x7ffdfafd4b90
generate:0x7ffdfafd4c48
generate:0x7ffdfafd4d00
generate:0x7ffdfafd4e70
BEGIN Configuration File: interposer4
//topology
topology = mesh;
k = 8;
n = 2;
type = interposer;
// Routing
routing_function = dor;

// Flow control
num_vcs     = 2;
vc_buf_size = 8;
wait_for_tail_credit = 1;
hold_switch_for_packet = 1;

// Router architecture
vc_allocator = islip;
sw_allocator = islip;
alloc_iters  = 1;

credit_delay   = 0;
routing_delay  = 1;
vc_alloc_delay = 1;
sw_alloc_delay = 1;
st_final_delay = 1;

input_speedup     = 1;
output_speedup    = 1;
internal_speedup  = 1.0;
vc_busy_when_full = 0;


//granulaity
latency_thres=20000.0;
deadlock_warn_timeout=20000;
traceStretch=3;

//gating
doGating=0;
sleepThreshold=40;
breakEvenThreshold=80;



//Syn Traffic
//sim_type=latency;
//traffic=uniform;
//packet_size = 1;
//sample_period=2500;
//warmup_periods=1;
//max_samples=10;
//injection_rate=0.0001;

sim_type = workload;
traffic=uniform;

workload=netrace({/home/yuri/Documents/fluidanimate_64c_simsmall.tra.bz2,100000000,1,2,1,1,0);
//packet_size = 1;
sample_period=25000;
warmup_periods=1;
max_samples=12;
//injection_rate=0.0001;

creditDelays=creditDelays({0,0,0,0,0,0,0,0,0,0,0,0,0,0,0,0,0,0,0,0,0,0,0,0,0,0,0,0,0,0,0,0,0,0,0,0,0,0,0,0,0,0,0,0,0,0,0,0,0,0,0,0,0,0,0,0,0,0,0,0,0,0,0,0}});
routingDelays=routingDelays({13,13,13,13,13,13,13,13,13,13,13,13,13,13,13,13,13,13,13,13,13,13,13,13,13,13,13,13,13,13,13,13,13,13,13,13,13,13,13,13,13,13,13,13,13,13,13,13,13,13,13,13,13,13,13,13,13,13,13,13,13,13,13,13});
vcAllocDelays=vcAllocDelays({10,10,10,10,10,10,10,10,10,10,10,10,10,10,10,10,10,10,10,10,10,10,10,10,10,10,10,10,10,10,10,10,10,10,10,10,10,10,10,10,10,10,10,10,10,10,10,10,10,10,10,10,10,10,10,10,10,10,10,10,10,10,10,10});
swAllocDelays=swAllocDelays({15,15,15,15,15,15,15,15,15,15,15,15,15,15,15,15,15,15,15,15,15,15,15,15,15,15,15,15,15,15,15,15,15,15,15,15,15,15,15,15,15,15,15,15,15,15,15,15,15,15,15,15,15,15,15,15,15,15,15,15,15,15,15,15});
stFinalDelays=stFinalDelays({12,12,12,12,12,12,12,12,12,12,12,12,12,12,12,12,12,12,12,12,12,12,12,12,12,12,12,12,12,12,12,12,12,12,12,12,12,12,12,12,12,12,12,12,12,12,12,12,12,12,12,12,12,12,12,12,12,12,12,12,12,12,12,12});
//channelDelays=channelDelays({1,1,1,1,1,1,1,1,1,1,1,1,1,1,1,1,1,1,1,1,1,1,1,1,1,1,1,1,1,1,1,1,1,1,1,1,1,1,1,1,1,1,1,1,1,1,1,1,1,1,1,1,1,1,1,1,1,1,1,1,1,1,1,1});

isAsync=isAsync({1,1,1,1,1,1,1,1,1,1,1,1,1,1,1,1,1,1,1,1,1,1,1,1,1,1,1,1,1,1,1,1,1,1,1,1,1,1,1,1,1,1,1,1,1,1,1,1,1,1,1,1,1,1,1,1,1,1,1,1,1,1,1,1});
isMetaUnstable=isMetaUnstable({0,0,0,0,0,0,0,0,0,0,0,0,0,0,0,0,0,0,0,0,0,0,0,0,0,0,0,0,0,0,0,0,0,0,0,0,0,0,0,0,0,0,0,0,0,0,0,0,0,0,0,0,0,0,0,0,0,0,0,0,0,0,0,0});

creditDelayStdDevs=creditDelayStdDevs({0,0,0,0,0,0,0,0,0,0,0,0,0,0,0,0,0,0,0,0,0,0,0,0,0,0,0,0,0,0,0,0,0,0,0,0,0,0,0,0,0,0,0,0,0,0,0,0,0,0,0,0,0,0,0,0,0,0,0,0,0,0,0,0});
routingDelayStdDevs=routingDelayStdDevs({0,0,0,0,0,0,0,0,0,0,0,0,0,0,0,0,0,0,0,0,0,0,0,0,0,0,0,0,0,0,0,0,0,0,0,0,0,0,0,0,0,0,0,0,0,0,0,0,0,0,0,0,0,0,0,0,0,0,0,0,0,0,0,0});
vcAllocDelayStdDevs=vcAllocDelayStdDevs({0,0,0,0,0,0,0,0,0,0,0,0,0,0,0,0,0,0,0,0,0,0,0,0,0,0,0,0,0,0,0,0,0,0,0,0,0,0,0,0,0,0,0,0,0,0,0,0,0,0,0,0,0,0,0,0,0,0,0,0,0,0,0,0});
swAllocDelayStdDevs=swAllocDelayStdDevs({0,0,0,0,0,0,0,0,0,0,0,0,0,0,0,0,0,0,0,0,0,0,0,0,0,0,0,0,0,0,0,0,0,0,0,0,0,0,0,0,0,0,0,0,0,0,0,0,0,0,0,0,0,0,0,0,0,0,0,0,0,0,0,0});
stFinalDelayStdDevs=stFinalDelayStdDevs({0,0,0,0,0,0,0,0,0,0,0,0,0,0,0,0,0,0,0,0,0,0,0,0,0,0,0,0,0,0,0,0,0,0,0,0,0,0,0,0,0,0,0,0,0,0,0,0,0,0,0,0,0,0,0,0,0,0,0,0,0,0,0,0});

  
swAllocThresholds=swAllocThresholds({1,1,1,1,1,1,1,1,1,1,1,1,1,1,1,1,1,1,1,1,1,1,1,1,1,1,1,1,1,1,1,1,1,1,1,1,1,1,1,1,1,1,1,1,1,1,1,1,1,1,1,1,1,1,1,1,1,1,1,1,1,1,1,1});
swAllocThresholdStdDevs=swAllocThresholdStdDevs({0,0,0,0,0,0,0,0,0,0,0,0,0,0,0,0,0,0,0,0,0,0,0,0,0,0,0,0,0,0,0,0,0,0,0,0,0,0,0,0,0,0,0,0,0,0,0,0,0,0,0,0,0,0,0,0,0,0,0,0,0,0,0,0});
swAllocMetaStableThresholds=swAllocMetaStableThresholds({1,1,1,1,1,1,1,1,1,1,1,1,1,1,1,1,1,1,1,1,1,1,1,1,1,1,1,1,1,1,1,1,1,1,1,1,1,1,1,1,1,1,1,1,1,1,1,1,1,1,1,1,1,1,1,1,1,1,1,1,1,1,1,1});
swAllocMetaStableMaxPenalities=swAllocMetaStableMaxPenalities({0,0,0,0,0,0,0,0,0,0,0,0,0,0,0,0,0,0,0,0,0,0,0,0,0,0,0,0,0,0,0,0,0,0,0,0,0,0,0,0,0,0,0,0,0,0,0,0,0,0,0,0,0,0,0,0,0,0,0,0,0,0,0,0});

END Configuration File: interposer4
BEGIN Configuration File: chip1
//topology
topology = mesh;
k = 4;
n = 2;
type = chip;
start_point = 0;
cnum=1;
// Routing
routing_function = dor;

// Flow control
num_vcs     = 2;
vc_buf_size = 8;
wait_for_tail_credit = 1;
hold_switch_for_packet = 1;

// Router architecture
vc_allocator = islip;
sw_allocator = islip;
alloc_iters  = 1;

credit_delay   = 0;
routing_delay  = 1;
vc_alloc_delay = 1;
sw_alloc_delay = 1;
st_final_delay = 1;

input_speedup     = 1;
output_speedup    = 1;
internal_speedup  = 1.0;
vc_busy_when_full = 0;


//granulaity
latency_thres=20000.0;
deadlock_warn_timeout=20000;
traceStretch=3;

//gating
doGating=0;
sleepThreshold=40;
breakEvenThreshold=80;



//Syn Traffic
sim_type=latency;
traffic=uniform;
packet_size = 1;
sample_period=50000;
warmup_periods=1;
max_samples=12;
injection_rate=0.01;

creditDelays=creditDelays({0,0,0,0,0,0,0,0,0,0,0,0,0,0,0,0,0,0,0,0,0,0,0,0,0,0,0,0,0,0,0,0,0,0,0,0,0,0,0,0,0,0,0,0,0,0,0,0,0,0,0,0,0,0,0,0,0,0,0,0,0,0,0,0}});
routingDelays=routingDelays({13,13,13,13,13,13,13,13,13,13,13,13,13,13,13,13,13,13,13,13,13,13,13,13,13,13,13,13,13,13,13,13,13,13,13,13,13,13,13,13,13,13,13,13,13,13,13,13,13,13,13,13,13,13,13,13,13,13,13,13,13,13,13,13});
vcAllocDelays=vcAllocDelays({10,10,10,10,10,10,10,10,10,10,10,10,10,10,10,10,10,10,10,10,10,10,10,10,10,10,10,10,10,10,10,10,10,10,10,10,10,10,10,10,10,10,10,10,10,10,10,10,10,10,10,10,10,10,10,10,10,10,10,10,10,10,10,10});
swAllocDelays=swAllocDelays({15,15,15,15,15,15,15,15,15,15,15,15,15,15,15,15,15,15,15,15,15,15,15,15,15,15,15,15,15,15,15,15,15,15,15,15,15,15,15,15,15,15,15,15,15,15,15,15,15,15,15,15,15,15,15,15,15,15,15,15,15,15,15,15});
stFinalDelays=stFinalDelays({12,12,12,12,12,12,12,12,12,12,12,12,12,12,12,12,12,12,12,12,12,12,12,12,12,12,12,12,12,12,12,12,12,12,12,12,12,12,12,12,12,12,12,12,12,12,12,12,12,12,12,12,12,12,12,12,12,12,12,12,12,12,12,12});
//channelDelays=channelDelays({1,1,1,1,1,1,1,1,1,1,1,1,1,1,1,1});

isAsync=isAsync({1,1,1,1,1,1,1,1,1,1,1,1,1,1,1,1});
isMetaUnstable=isMetaUnstable({0,0,0,0,0,0,0,0,0,0,0,0,0,0,0,0});

creditDelayStdDevs=creditDelayStdDevs({0,0,0,0,0,0,0,0,0,0,0,0,0,0,0,0});
routingDelayStdDevs=routingDelayStdDevs({0,0,0,0,0,0,0,0,0,0,0,0,0,0,0,0});
vcAllocDelayStdDevs=vcAllocDelayStdDevs({0,0,0,0,0,0,0,0,0,0,0,0,0,0,0,0});
swAllocDelayStdDevs=swAllocDelayStdDevs({0,0,0,0,0,0,0,0,0,0,0,0,0,0,0,0});
stFinalDelayStdDevs=stFinalDelayStdDevs({0,0,0,0,0,0,0,0,0,0,0,0,0,0,0,0});

  
swAllocThresholds=swAllocThresholds({1,1,1,1,1,1,1,1,1,1,1,1,1,1,1,1});
swAllocThresholdStdDevs=swAllocThresholdStdDevs({0,0,0,0,0,0,0,0,0,0,0,0,0,0,0,0});
swAllocMetaStableThresholds=swAllocMetaStableThresholds({1,1,1,1,1,1,1,1,1,1,1,1,1,1,1,1});
swAllocMetaStableMaxPenalities=swAllocMetaStableMaxPenalities({0,0,0,0,0,0,0,0,0,0,0,0,0,0,0,0});

END Configuration File: chip1
BEGIN Configuration File: chip2
//topology
topology = mesh;
k = 4;
n = 2;
type = chip;
start_point = 4;
cnum=2;
// Routing
routing_function = dor;

// Flow control
num_vcs     = 2;
vc_buf_size = 8;
wait_for_tail_credit = 1;
hold_switch_for_packet = 1;

// Router architecture
vc_allocator = islip;
sw_allocator = islip;
alloc_iters  = 1;

credit_delay   = 0;
routing_delay  = 1;
vc_alloc_delay = 1;
sw_alloc_delay = 1;
st_final_delay = 1;

input_speedup     = 1;
output_speedup    = 1;
internal_speedup  = 1.0;
vc_busy_when_full = 0;


//granulaity
latency_thres=20000.0;
deadlock_warn_timeout=20000;
traceStretch=3;

//gating
doGating=0;
sleepThreshold=40;
breakEvenThreshold=80;



//Syn Traffic
sim_type=latency;
traffic=uniform;
packet_size = 1;
sample_period=50000;
warmup_periods=3;
max_samples=14;
injection_rate=0.01;

creditDelays=creditDelays({0,0,0,0,0,0,0,0,0,0,0,0,0,0,0,0,0,0,0,0,0,0,0,0,0,0,0,0,0,0,0,0,0,0,0,0,0,0,0,0,0,0,0,0,0,0,0,0,0,0,0,0,0,0,0,0,0,0,0,0,0,0,0,0}});
routingDelays=routingDelays({13,13,13,13,13,13,13,13,13,13,13,13,13,13,13,13,13,13,13,13,13,13,13,13,13,13,13,13,13,13,13,13,13,13,13,13,13,13,13,13,13,13,13,13,13,13,13,13,13,13,13,13,13,13,13,13,13,13,13,13,13,13,13,13});
vcAllocDelays=vcAllocDelays({10,10,10,10,10,10,10,10,10,10,10,10,10,10,10,10,10,10,10,10,10,10,10,10,10,10,10,10,10,10,10,10,10,10,10,10,10,10,10,10,10,10,10,10,10,10,10,10,10,10,10,10,10,10,10,10,10,10,10,10,10,10,10,10});
swAllocDelays=swAllocDelays({15,15,15,15,15,15,15,15,15,15,15,15,15,15,15,15,15,15,15,15,15,15,15,15,15,15,15,15,15,15,15,15,15,15,15,15,15,15,15,15,15,15,15,15,15,15,15,15,15,15,15,15,15,15,15,15,15,15,15,15,15,15,15,15});
stFinalDelays=stFinalDelays({12,12,12,12,12,12,12,12,12,12,12,12,12,12,12,12,12,12,12,12,12,12,12,12,12,12,12,12,12,12,12,12,12,12,12,12,12,12,12,12,12,12,12,12,12,12,12,12,12,12,12,12,12,12,12,12,12,12,12,12,12,12,12,12});
//channelDelays=channelDelays({1,1,1,1,1,1,1,1,1,1,1,1,1,1,1,1});

isAsync=isAsync({1,1,1,1,1,1,1,1,1,1,1,1,1,1,1,1});
isMetaUnstable=isMetaUnstable({0,0,0,0,0,0,0,0,0,0,0,0,0,0,0,0});

creditDelayStdDevs=creditDelayStdDevs({0,0,0,0,0,0,0,0,0,0,0,0,0,0,0,0});
routingDelayStdDevs=routingDelayStdDevs({0,0,0,0,0,0,0,0,0,0,0,0,0,0,0,0});
vcAllocDelayStdDevs=vcAllocDelayStdDevs({0,0,0,0,0,0,0,0,0,0,0,0,0,0,0,0});
swAllocDelayStdDevs=swAllocDelayStdDevs({0,0,0,0,0,0,0,0,0,0,0,0,0,0,0,0});
stFinalDelayStdDevs=stFinalDelayStdDevs({0,0,0,0,0,0,0,0,0,0,0,0,0,0,0,0});

  
swAllocThresholds=swAllocThresholds({1,1,1,1,1,1,1,1,1,1,1,1,1,1,1,1});
swAllocThresholdStdDevs=swAllocThresholdStdDevs({0,0,0,0,0,0,0,0,0,0,0,0,0,0,0,0});
swAllocMetaStableThresholds=swAllocMetaStableThresholds({1,1,1,1,1,1,1,1,1,1,1,1,1,1,1,1});
swAllocMetaStableMaxPenalities=swAllocMetaStableMaxPenalities({0,0,0,0,0,0,0,0,0,0,0,0,0,0,0,0});

END Configuration File: chip2
BEGIN Configuration File: chip3
//topology
topology = mesh;
k = 4;
n = 2;
type = chip;
start_point = 32;
// Routing
cnum=3;
routing_function = dor;

// Flow control
num_vcs     = 2;
vc_buf_size = 8;
wait_for_tail_credit = 1;
hold_switch_for_packet = 1;

// Router architecture
vc_allocator = islip;
sw_allocator = islip;
alloc_iters  = 1;

credit_delay   = 0;
routing_delay  = 1;
vc_alloc_delay = 1;
sw_alloc_delay = 1;
st_final_delay = 1;

input_speedup     = 1;
output_speedup    = 1;
internal_speedup  = 1.0;
vc_busy_when_full = 0;


//granulaity
latency_thres=20000.0;
deadlock_warn_timeout=20000;
traceStretch=3;

//gating
doGating=0;
sleepThreshold=40;
breakEvenThreshold=80;



//Syn Traffic
sim_type=latency;
traffic=uniform;
packet_size = 1;
sample_period=50000;
warmup_periods=3;
max_samples=14;
injection_rate=0.01;

creditDelays=creditDelays({0,0,0,0,0,0,0,0,0,0,0,0,0,0,0,0,0,0,0,0,0,0,0,0,0,0,0,0,0,0,0,0,0,0,0,0,0,0,0,0,0,0,0,0,0,0,0,0,0,0,0,0,0,0,0,0,0,0,0,0,0,0,0,0}});
routingDelays=routingDelays({13,13,13,13,13,13,13,13,13,13,13,13,13,13,13,13,13,13,13,13,13,13,13,13,13,13,13,13,13,13,13,13,13,13,13,13,13,13,13,13,13,13,13,13,13,13,13,13,13,13,13,13,13,13,13,13,13,13,13,13,13,13,13,13});
vcAllocDelays=vcAllocDelays({10,10,10,10,10,10,10,10,10,10,10,10,10,10,10,10,10,10,10,10,10,10,10,10,10,10,10,10,10,10,10,10,10,10,10,10,10,10,10,10,10,10,10,10,10,10,10,10,10,10,10,10,10,10,10,10,10,10,10,10,10,10,10,10});
swAllocDelays=swAllocDelays({15,15,15,15,15,15,15,15,15,15,15,15,15,15,15,15,15,15,15,15,15,15,15,15,15,15,15,15,15,15,15,15,15,15,15,15,15,15,15,15,15,15,15,15,15,15,15,15,15,15,15,15,15,15,15,15,15,15,15,15,15,15,15,15});
stFinalDelays=stFinalDelays({12,12,12,12,12,12,12,12,12,12,12,12,12,12,12,12,12,12,12,12,12,12,12,12,12,12,12,12,12,12,12,12,12,12,12,12,12,12,12,12,12,12,12,12,12,12,12,12,12,12,12,12,12,12,12,12,12,12,12,12,12,12,12,12});
//channelDelays=channelDelays({1,1,1,1,1,1,1,1,1,1,1,1,1,1,1,1});

isAsync=isAsync({1,1,1,1,1,1,1,1,1,1,1,1,1,1,1,1});
isMetaUnstable=isMetaUnstable({0,0,0,0,0,0,0,0,0,0,0,0,0,0,0,0});

creditDelayStdDevs=creditDelayStdDevs({0,0,0,0,0,0,0,0,0,0,0,0,0,0,0,0});
routingDelayStdDevs=routingDelayStdDevs({0,0,0,0,0,0,0,0,0,0,0,0,0,0,0,0});
vcAllocDelayStdDevs=vcAllocDelayStdDevs({0,0,0,0,0,0,0,0,0,0,0,0,0,0,0,0});
swAllocDelayStdDevs=swAllocDelayStdDevs({0,0,0,0,0,0,0,0,0,0,0,0,0,0,0,0});
stFinalDelayStdDevs=stFinalDelayStdDevs({0,0,0,0,0,0,0,0,0,0,0,0,0,0,0,0});

  
swAllocThresholds=swAllocThresholds({1,1,1,1,1,1,1,1,1,1,1,1,1,1,1,1});
swAllocThresholdStdDevs=swAllocThresholdStdDevs({0,0,0,0,0,0,0,0,0,0,0,0,0,0,0,0});
swAllocMetaStableThresholds=swAllocMetaStableThresholds({1,1,1,1,1,1,1,1,1,1,1,1,1,1,1,1});
swAllocMetaStableMaxPenalities=swAllocMetaStableMaxPenalities({0,0,0,0,0,0,0,0,0,0,0,0,0,0,0,0});

END Configuration File: chip3
BEGIN Configuration File: chip4
//topology
topology = mesh;
k = 4;
n = 2;
type = chip;
start_point = 36;
cnum=4;
// Routing
routing_function = dor;

// Flow control
num_vcs     = 2;
vc_buf_size = 8;
wait_for_tail_credit = 1;
hold_switch_for_packet = 1;

// Router architecture
vc_allocator = islip;
sw_allocator = islip;
alloc_iters  = 1;

credit_delay   = 0;
routing_delay  = 1;
vc_alloc_delay = 1;
sw_alloc_delay = 1;
st_final_delay = 1;

input_speedup     = 1;
output_speedup    = 1;
internal_speedup  = 1.0;
vc_busy_when_full = 0;


//granulaity
latency_thres=20000.0;
deadlock_warn_timeout=20000;
traceStretch=3;

//gating
doGating=0;
sleepThreshold=40;
breakEvenThreshold=80;



//Syn Traffic
sim_type=latency;
traffic=uniform;
packet_size = 1;
sample_period=50000;
warmup_periods=3;
max_samples=14;
injection_rate=0.01;

creditDelays=creditDelays({0,0,0,0,0,0,0,0,0,0,0,0,0,0,0,0,0,0,0,0,0,0,0,0,0,0,0,0,0,0,0,0,0,0,0,0,0,0,0,0,0,0,0,0,0,0,0,0,0,0,0,0,0,0,0,0,0,0,0,0,0,0,0,0}});
routingDelays=routingDelays({13,13,13,13,13,13,13,13,13,13,13,13,13,13,13,13,13,13,13,13,13,13,13,13,13,13,13,13,13,13,13,13,13,13,13,13,13,13,13,13,13,13,13,13,13,13,13,13,13,13,13,13,13,13,13,13,13,13,13,13,13,13,13,13});
vcAllocDelays=vcAllocDelays({10,10,10,10,10,10,10,10,10,10,10,10,10,10,10,10,10,10,10,10,10,10,10,10,10,10,10,10,10,10,10,10,10,10,10,10,10,10,10,10,10,10,10,10,10,10,10,10,10,10,10,10,10,10,10,10,10,10,10,10,10,10,10,10});
swAllocDelays=swAllocDelays({15,15,15,15,15,15,15,15,15,15,15,15,15,15,15,15,15,15,15,15,15,15,15,15,15,15,15,15,15,15,15,15,15,15,15,15,15,15,15,15,15,15,15,15,15,15,15,15,15,15,15,15,15,15,15,15,15,15,15,15,15,15,15,15});
stFinalDelays=stFinalDelays({12,12,12,12,12,12,12,12,12,12,12,12,12,12,12,12,12,12,12,12,12,12,12,12,12,12,12,12,12,12,12,12,12,12,12,12,12,12,12,12,12,12,12,12,12,12,12,12,12,12,12,12,12,12,12,12,12,12,12,12,12,12,12,12});
//channelDelays=channelDelays({1,1,1,1,1,1,1,1,1,1,1,1,1,1,1,1});

isAsync=isAsync({1,1,1,1,1,1,1,1,1,1,1,1,1,1,1,1});
isMetaUnstable=isMetaUnstable({0,0,0,0,0,0,0,0,0,0,0,0,0,0,0,0});

creditDelayStdDevs=creditDelayStdDevs({0,0,0,0,0,0,0,0,0,0,0,0,0,0,0,0});
routingDelayStdDevs=routingDelayStdDevs({0,0,0,0,0,0,0,0,0,0,0,0,0,0,0,0});
vcAllocDelayStdDevs=vcAllocDelayStdDevs({0,0,0,0,0,0,0,0,0,0,0,0,0,0,0,0});
swAllocDelayStdDevs=swAllocDelayStdDevs({0,0,0,0,0,0,0,0,0,0,0,0,0,0,0,0});
stFinalDelayStdDevs=stFinalDelayStdDevs({0,0,0,0,0,0,0,0,0,0,0,0,0,0,0,0});

  
swAllocThresholds=swAllocThresholds({1,1,1,1,1,1,1,1,1,1,1,1,1,1,1,1});
swAllocThresholdStdDevs=swAllocThresholdStdDevs({0,0,0,0,0,0,0,0,0,0,0,0,0,0,0,0});
swAllocMetaStableThresholds=swAllocMetaStableThresholds({1,1,1,1,1,1,1,1,1,1,1,1,1,1,1,1});
swAllocMetaStableMaxPenalities=swAllocMetaStableMaxPenalities({0,0,0,0,0,0,0,0,0,0,0,0,0,0,0,0});

END Configuration File: chip4
rid:0 add output _25chan1
rid:0 add input _25chan0
rid:1 add output _25chan3
rid:1 add input _25chan2
rid:2 add output _25chan5
rid:2 add input _25chan4
rid:3 add output _25chan7
rid:3 add input _25chan6
rid:4 add output _25chan33
rid:4 add input _25chan32
rid:5 add output _25chan35
rid:5 add input _25chan34
rid:6 add output _25chan37
rid:6 add input _25chan36
rid:7 add output _25chan39
rid:7 add input _25chan38
rid:8 add output _25chan9
rid:8 add input _25chan8
rid:9 add output _25chan11
rid:9 add input _25chan10
rid:10 add output _25chan13
rid:10 add input _25chan12
rid:11 add output _25chan15
rid:11 add input _25chan14
rid:12 add output _25chan41
rid:12 add input _25chan40
rid:13 add output _25chan43
rid:13 add input _25chan42
rid:14 add output _25chan45
rid:14 add input _25chan44
rid:15 add output _25chan47
rid:15 add input _25chan46
rid:16 add output _25chan17
rid:16 add input _25chan16
rid:17 add output _25chan19
rid:17 add input _25chan18
rid:18 add output _25chan21
rid:18 add input _25chan20
rid:19 add output _25chan23
rid:19 add input _25chan22
rid:20 add output _25chan49
rid:20 add input _25chan48
rid:21 add output _25chan51
rid:21 add input _25chan50
rid:22 add output _25chan53
rid:22 add input _25chan52
rid:23 add output _25chan55
rid:23 add input _25chan54
rid:24 add output _25chan25
rid:24 add input _25chan24
rid:25 add output _25chan27
rid:25 add input _25chan26
rid:26 add output _25chan29
rid:26 add input _25chan28
rid:27 add output _25chan31
rid:27 add input _25chan30
rid:28 add output _25chan57
rid:28 add input _25chan56
rid:29 add output _25chan59
rid:29 add input _25chan58
rid:30 add output _25chan61
rid:30 add input _25chan60
rid:31 add output _25chan63
rid:31 add input _25chan62
rid:32 add output _25chan65
rid:32 add input _25chan64
rid:33 add output _25chan67
rid:33 add input _25chan66
rid:34 add output _25chan69
rid:34 add input _25chan68
rid:35 add output _25chan71
rid:35 add input _25chan70
rid:36 add output _25chan97
rid:36 add input _25chan96
rid:37 add output _25chan99
rid:37 add input _25chan98
rid:38 add output _25chan101
rid:38 add input _25chan100
rid:39 add output _25chan103
rid:39 add input _25chan102
rid:40 add output _25chan73
rid:40 add input _25chan72
rid:41 add output _25chan75
rid:41 add input _25chan74
rid:42 add output _25chan77
rid:42 add input _25chan76
rid:43 add output _25chan79
rid:43 add input _25chan78
rid:44 add output _25chan105
rid:44 add input _25chan104
rid:45 add output _25chan107
rid:45 add input _25chan106
rid:46 add output _25chan109
rid:46 add input _25chan108
rid:47 add output _25chan111
rid:47 add input _25chan110
rid:48 add output _25chan81
rid:48 add input _25chan80
rid:49 add output _25chan83
rid:49 add input _25chan82
rid:50 add output _25chan85
rid:50 add input _25chan84
rid:51 add output _25chan87
rid:51 add input _25chan86
rid:52 add output _25chan113
rid:52 add input _25chan112
rid:53 add output _25chan115
rid:53 add input _25chan114
rid:54 add output _25chan117
rid:54 add input _25chan116
rid:55 add output _25chan119
rid:55 add input _25chan118
rid:56 add output _25chan89
rid:56 add input _25chan88
rid:57 add output _25chan91
rid:57 add input _25chan90
rid:58 add output _25chan93
rid:58 add input _25chan92
rid:59 add output _25chan95
rid:59 add input _25chan94
rid:60 add output _25chan121
rid:60 add input _25chan120
rid:61 add output _25chan123
rid:61 add input _25chan122
rid:62 add output _25chan125
rid:62 add input _25chan124
rid:63 add output _25chan127
rid:63 add input _25chan126
rid:0 add output _25chan0
rid:0 add input _25chan1
rid:1 add output _25chan2
rid:1 add input _25chan3
rid:2 add output _25chan4
rid:2 add input _25chan5
rid:3 add output _25chan6
rid:3 add input _25chan7
rid:4 add output _25chan8
rid:4 add input _25chan9
rid:5 add output _25chan10
rid:5 add input _25chan11
rid:6 add output _25chan12
rid:6 add input _25chan13
rid:7 add output _25chan14
rid:7 add input _25chan15
rid:8 add output _25chan16
rid:8 add input _25chan17
rid:9 add output _25chan18
rid:9 add input _25chan19
rid:10 add output _25chan20
rid:10 add input _25chan21
rid:11 add output _25chan22
rid:11 add input _25chan23
rid:12 add output _25chan24
rid:12 add input _25chan25
rid:13 add output _25chan26
rid:13 add input _25chan27
rid:14 add output _25chan28
rid:14 add input _25chan29
rid:15 add output _25chan30
rid:15 add input _25chan31
rid:0 add output _25chan32
rid:0 add input _25chan33
rid:1 add output _25chan34
rid:1 add input _25chan35
rid:2 add output _25chan36
rid:2 add input _25chan37
rid:3 add output _25chan38
rid:3 add input _25chan39
rid:4 add output _25chan40
rid:4 add input _25chan41
rid:5 add output _25chan42
rid:5 add input _25chan43
rid:6 add output _25chan44
rid:6 add input _25chan45
rid:7 add output _25chan46
rid:7 add input _25chan47
rid:8 add output _25chan48
rid:8 add input _25chan49
rid:9 add output _25chan50
rid:9 add input _25chan51
rid:10 add output _25chan52
rid:10 add input _25chan53
rid:11 add output _25chan54
rid:11 add input _25chan55
rid:12 add output _25chan56
rid:12 add input _25chan57
rid:13 add output _25chan58
rid:13 add input _25chan59
rid:14 add output _25chan60
rid:14 add input _25chan61
rid:15 add output _25chan62
rid:15 add input _25chan63
rid:0 add output _25chan64
rid:0 add input _25chan65
rid:1 add output _25chan66
rid:1 add input _25chan67
rid:2 add output _25chan68
rid:2 add input _25chan69
rid:3 add output _25chan70
rid:3 add input _25chan71
rid:4 add output _25chan72
rid:4 add input _25chan73
rid:5 add output _25chan74
rid:5 add input _25chan75
rid:6 add output _25chan76
rid:6 add input _25chan77
rid:7 add output _25chan78
rid:7 add input _25chan79
rid:8 add output _25chan80
rid:8 add input _25chan81
rid:9 add output _25chan82
rid:9 add input _25chan83
rid:10 add output _25chan84
rid:10 add input _25chan85
rid:11 add output _25chan86
rid:11 add input _25chan87
rid:12 add output _25chan88
rid:12 add input _25chan89
rid:13 add output _25chan90
rid:13 add input _25chan91
rid:14 add output _25chan92
rid:14 add input _25chan93
rid:15 add output _25chan94
rid:15 add input _25chan95
rid:0 add output _25chan96
rid:0 add input _25chan97
rid:1 add output _25chan98
rid:1 add input _25chan99
rid:2 add output _25chan100
rid:2 add input _25chan101
rid:3 add output _25chan102
rid:3 add input _25chan103
rid:4 add output _25chan104
rid:4 add input _25chan105
rid:5 add output _25chan106
rid:5 add input _25chan107
rid:6 add output _25chan108
rid:6 add input _25chan109
rid:7 add output _25chan110
rid:7 add input _25chan111
rid:8 add output _25chan112
rid:8 add input _25chan113
rid:9 add output _25chan114
rid:9 add input _25chan115
rid:10 add output _25chan116
rid:10 add input _25chan117
rid:11 add output _25chan118
rid:11 add input _25chan119
rid:12 add output _25chan120
rid:12 add input _25chan121
rid:13 add output _25chan122
rid:13 add input _25chan123
rid:14 add output _25chan124
rid:14 add input _25chan125
rid:15 add output _25chan126
rid:15 add input _25chan127
Warming up...

Tick: 0M
===== Time: 25000 =====
Class 0:
Packets read from trace = 135 of 20989170 (0%)
Future packets = 1
Waiting packets = 1
Stalled packets = 70
Packets pending injection = 0
Packets in flight = 2
Minimum packet latency = 94
Average packet latency = 546.836
Maximum packet latency = 785
Minimum network latency = 91
Average network latency = 540.295
Maximum network latency = 785
Slowest packet = 34
Minimum flit latency = 50
Average flit latency = 502.978
Maximum flit latency = 744
Slowest flit = 210
Minimum fragmentation = 0
Average fragmentation = 28.5738
Maximum fragmentation = 88
Minimum injected packet rate = 0 (at node 0)
Average injected packet rate = 1.96875e-05
Maximum injected packet rate = 0.001 (at node 66)
Minimum accepted packet rate = 0 (at node 0)
Average accepted packet rate = 1.90625e-05
Maximum accepted packet rate = 0.00076 (at node 66)
Minimum injected flit rate = 0 (at node 0)
Average injected flit rate = 0.000117187
Maximum injected flit rate = 0.0058 (at node 66)
Minimum accepted flit rate = 0 (at node 0)
Average accepted flit rate = 0.000114063
Maximum accepted flit rate = 0.00556 (at node 66)
Total number of injected packets = 63
Total number of injected flits = 375
Average injected packet length = 5.95238
Total number of accepted packets = 61
Total number of accepted flits = 365
Average accepted packet length = 5.98361
Total in-flight flits = 10 (0 measured)
Warmup ends after 25000 cycles.
Beginning measurements...
===== Time: 50000 =====
Class 0:
Packets read from trace = 262 of 20989170 (0%)
Future packets = 1
Waiting packets = 1
Stalled packets = 141
Packets pending injection = 0
Packets in flight = 1
Minimum packet latency = 92
Average packet latency = 540.055
Maximum packet latency = 770
Minimum network latency = 91
Average network latency = 533.273
Maximum network latency = 770
Slowest packet = 108
Minimum flit latency = 50
Average flit latency = 489.766
Maximum flit latency = 729
Slowest flit = 644
Minimum fragmentation = 0
Average fragmentation = 27.2909
Maximum fragmentation = 60
Minimum injected packet rate = 0 (at node 0)
Average injected packet rate = 1.75e-05
Maximum injected packet rate = 0.00088 (at node 66)
Minimum accepted packet rate = 0 (at node 0)
Average accepted packet rate = 1.78125e-05
Maximum accepted packet rate = 0.00084 (at node 66)
Minimum injected flit rate = 0 (at node 0)
Average injected flit rate = 0.0001
Maximum injected flit rate = 0.00504 (at node 66)
Minimum accepted flit rate = 0 (at node 0)
Average accepted flit rate = 0.000102812
Maximum accepted flit rate = 0.00596 (at node 66)
Total number of injected packets = 56
Total number of injected flits = 320
Average injected packet length = 5.71429
Total number of accepted packets = 57
Total number of accepted flits = 329
Average accepted packet length = 5.77193
Total in-flight flits = 1 (1 measured)
===== Time: 75000 =====
Class 0:
Packets read from trace = 386 of 20989170 (0%)
Future packets = 1
Waiting packets = 1
Stalled packets = 209
Packets pending injection = 0
Packets in flight = 0
Minimum packet latency = 92
Average packet latency = 535.018
Maximum packet latency = 774
Minimum network latency = 91
Average network latency = 528.795
Maximum network latency = 774
Slowest packet = 154
Minimum flit latency = 50
Average flit latency = 486.142
Maximum flit latency = 733
Slowest flit = 898
Minimum fragmentation = 0
Average fragmentation = 26.9732
Maximum fragmentation = 60
Minimum injected packet rate = 0 (at node 0)
Average injected packet rate = 1.75e-05
Maximum injected packet rate = 0.00086 (at node 66)
Minimum accepted packet rate = 0 (at node 0)
Average accepted packet rate = 1.78125e-05
Maximum accepted packet rate = 0.00082 (at node 66)
Minimum injected flit rate = 0 (at node 0)
Average injected flit rate = 0.0001
Maximum injected flit rate = 0.00486 (at node 66)
Minimum accepted flit rate = 0 (at node 0)
Average accepted flit rate = 0.000101562
Maximum accepted flit rate = 0.00578 (at node 66)
Total number of injected packets = 112
Total number of injected flits = 640
Average injected packet length = 5.71429
Total number of accepted packets = 114
Total number of accepted flits = 650
Average accepted packet length = 5.70175
Total in-flight flits = 0 (0 measured)
===== Time: 100000 =====
Class 0:
Packets read from trace = 512 of 20989170 (0%)
Future packets = 1
Waiting packets = 0
Stalled packets = 277
Packets pending injection = 0
Packets in flight = 1
Minimum packet latency = 92
Average packet latency = 540.029
Maximum packet latency = 774
Minimum network latency = 91
Average network latency = 533.482
Maximum network latency = 774
Slowest packet = 154
Minimum flit latency = 50
Average flit latency = 493.09
Maximum flit latency = 733
Slowest flit = 898
Minimum fragmentation = 0
Average fragmentation = 27.1118
Maximum fragmentation = 60
Minimum injected packet rate = 0 (at node 0)
Average injected packet rate = 1.78125e-05
Maximum injected packet rate = 0.000893333 (at node 66)
Minimum accepted packet rate = 0 (at node 0)
Average accepted packet rate = 1.79167e-05
Maximum accepted packet rate = 0.000773333 (at node 66)
Minimum injected flit rate = 0 (at node 0)
Average injected flit rate = 0.000102812
Maximum injected flit rate = 0.00516 (at node 66)
Minimum accepted flit rate = 0 (at node 0)
Average accepted flit rate = 0.00010375
Maximum accepted flit rate = 0.00546667 (at node 66)
Total number of injected packets = 171
Total number of injected flits = 987
Average injected packet length = 5.77193
Total number of accepted packets = 172
Total number of accepted flits = 996
Average accepted packet length = 5.7907
Total in-flight flits = 1 (1 measured)
===== Time: 125000 =====
Class 0:
Packets read from trace = 636 of 20989170 (0%)
Future packets = 1
Waiting packets = 0
Stalled packets = 343
Packets pending injection = 0
Packets in flight = 1
Minimum packet latency = 92
Average packet latency = 546.838
Maximum packet latency = 774
Minimum network latency = 91
Average network latency = 540.149
Maximum network latency = 774
Slowest packet = 154
Minimum flit latency = 50
Average flit latency = 503.165
Maximum flit latency = 733
Slowest flit = 898
Minimum fragmentation = 0
Average fragmentation = 27.1228
Maximum fragmentation = 60
Minimum injected packet rate = 0 (at node 0)
Average injected packet rate = 1.78906e-05
Maximum injected packet rate = 0.0009 (at node 66)
Minimum accepted packet rate = 0 (at node 0)
Average accepted packet rate = 1.79687e-05
Maximum accepted packet rate = 0.00072 (at node 66)
Minimum injected flit rate = 0 (at node 0)
Average injected flit rate = 0.000104063
Maximum injected flit rate = 0.00522 (at node 66)
Minimum accepted flit rate = 0 (at node 0)
Average accepted flit rate = 0.000104219
Maximum accepted flit rate = 0.00496 (at node 66)
Total number of injected packets = 229
Total number of injected flits = 1332
Average injected packet length = 5.81659
Total number of accepted packets = 230
Total number of accepted flits = 1334
Average accepted packet length = 5.8
Total in-flight flits = 9 (9 measured)
===== Time: 150000 =====
Class 0:
Packets read from trace = 754 of 20989170 (0%)
Future packets = 1
Waiting packets = 1
Stalled packets = 407
Packets pending injection = 0
Packets in flight = 1
Minimum packet latency = 92
Average packet latency = 550.605
Maximum packet latency = 774
Minimum network latency = 91
Average network latency = 543.872
Maximum network latency = 774
Slowest packet = 154
Minimum flit latency = 50
Average flit latency = 509.52
Maximum flit latency = 733
Slowest flit = 898
Minimum fragmentation = 0
Average fragmentation = 26.7011
Maximum fragmentation = 60
Minimum injected packet rate = 0 (at node 0)
Average injected packet rate = 1.7625e-05
Maximum injected packet rate = 0.000888 (at node 66)
Minimum accepted packet rate = 0 (at node 0)
Average accepted packet rate = 1.76875e-05
Maximum accepted packet rate = 0.00068 (at node 66)
Minimum injected flit rate = 0 (at node 0)
Average injected flit rate = 0.000101625
Maximum injected flit rate = 0.005112 (at node 66)
Minimum accepted flit rate = 0 (at node 0)
Average accepted flit rate = 0.00010175
Maximum accepted flit rate = 0.004656 (at node 66)
Total number of injected packets = 282
Total number of injected flits = 1626
Average injected packet length = 5.76596
Total number of accepted packets = 283
Total number of accepted flits = 1628
Average accepted packet length = 5.75265
Total in-flight flits = 8 (8 measured)
===== Time: 175000 =====
Class 0:
Packets read from trace = 871 of 20989170 (0%)
Future packets = 1
Waiting packets = 0
Stalled packets = 467
Packets pending injection = 0
Packets in flight = 1
Minimum packet latency = 92
Average packet latency = 553.407
Maximum packet latency = 774
Minimum network latency = 91
Average network latency = 546.737
Maximum network latency = 774
Slowest packet = 154
Minimum flit latency = 50
Average flit latency = 514.293
Maximum flit latency = 733
Slowest flit = 898
Minimum fragmentation = 0
Average fragmentation = 26.8555
Maximum fragmentation = 60
Minimum injected packet rate = 0 (at node 0)
Average injected packet rate = 1.77083e-05
Maximum injected packet rate = 0.000893333 (at node 66)
Minimum accepted packet rate = 0 (at node 0)
Average accepted packet rate = 1.77604e-05
Maximum accepted packet rate = 0.000673333 (at node 66)
Minimum injected flit rate = 0 (at node 0)
Average injected flit rate = 0.000102292
Maximum injected flit rate = 0.00510667 (at node 66)
Minimum accepted flit rate = 0 (at node 0)
Average accepted flit rate = 0.00010276
Maximum accepted flit rate = 0.00456667 (at node 66)
Total number of injected packets = 340
Total number of injected flits = 1964
Average injected packet length = 5.77647
Total number of accepted packets = 341
Total number of accepted flits = 1973
Average accepted packet length = 5.78592
Total in-flight flits = 1 (1 measured)
===== Time: 200000 =====
Class 0:
Packets read from trace = 979 of 20989170 (0%)
Future packets = 1
Waiting packets = 1
Stalled packets = 528
Packets pending injection = 0
Packets in flight = 0
Minimum packet latency = 92
Average packet latency = 550.741
Maximum packet latency = 774
Minimum network latency = 91
Average network latency = 544.264
Maximum network latency = 774
Slowest packet = 154
Minimum flit latency = 50
Average flit latency = 511.757
Maximum flit latency = 733
Slowest flit = 898
Minimum fragmentation = 0
Average fragmentation = 26.0699
Maximum fragmentation = 60
Minimum injected packet rate = 0 (at node 0)
Average injected packet rate = 1.72321e-05
Maximum injected packet rate = 0.000868571 (at node 66)
Minimum accepted packet rate = 0 (at node 0)
Average accepted packet rate = 1.73214e-05
Maximum accepted packet rate = 0.000668571 (at node 66)
Minimum injected flit rate = 0 (at node 0)
Average injected flit rate = 9.75893e-05
Maximum injected flit rate = 0.00489143 (at node 66)
Minimum accepted flit rate = 0 (at node 0)
Average accepted flit rate = 9.80357e-05
Maximum accepted flit rate = 0.00450857 (at node 66)
Total number of injected packets = 386
Total number of injected flits = 2186
Average injected packet length = 5.66321
Total number of accepted packets = 388
Total number of accepted flits = 2196
Average accepted packet length = 5.65979
Total in-flight flits = 0 (0 measured)
===== Time: 225000 =====
Class 0:
Packets read from trace = 1096 of 20989170 (0%)
Future packets = 1
Waiting packets = 0
Stalled packets = 595
Packets pending injection = 0
Packets in flight = 1
Minimum packet latency = 92
Average packet latency = 548.034
Maximum packet latency = 774
Minimum network latency = 91
Average network latency = 541.346
Maximum network latency = 774
Slowest packet = 154
Minimum flit latency = 50
Average flit latency = 507.044
Maximum flit latency = 733
Slowest flit = 898
Minimum fragmentation = 0
Average fragmentation = 25.9587
Maximum fragmentation = 60
Minimum injected packet rate = 0 (at node 0)
Average injected packet rate = 1.70703e-05
Maximum injected packet rate = 0.000875 (at node 66)
Minimum accepted packet rate = 0 (at node 0)
Average accepted packet rate = 1.71094e-05
Maximum accepted packet rate = 0.00066 (at node 66)
Minimum injected flit rate = 0 (at node 0)
Average injected flit rate = 9.61328e-05
Maximum injected flit rate = 0.004955 (at node 66)
Minimum accepted flit rate = 0 (at node 0)
Average accepted flit rate = 9.64844e-05
Maximum accepted flit rate = 0.00446 (at node 66)
Total number of injected packets = 437
Total number of injected flits = 2461
Average injected packet length = 5.63158
Total number of accepted packets = 438
Total number of accepted flits = 2470
Average accepted packet length = 5.63927
Total in-flight flits = 1 (1 measured)
===== Time: 250000 =====
Class 0:
Packets read from trace = 1208 of 20989170 (0%)
Future packets = 1
Waiting packets = 0
Stalled packets = 655
Packets pending injection = 0
Packets in flight = 1
Minimum packet latency = 92
Average packet latency = 546.316
Maximum packet latency = 774
Minimum network latency = 91
Average network latency = 539.504
Maximum network latency = 774
Slowest packet = 154
Minimum flit latency = 50
Average flit latency = 505.42
Maximum flit latency = 733
Slowest flit = 898
Minimum fragmentation = 0
Average fragmentation = 25.8934
Maximum fragmentation = 65
Minimum injected packet rate = 0 (at node 0)
Average injected packet rate = 1.69792e-05
Maximum injected packet rate = 0.000857778 (at node 66)
Minimum accepted packet rate = 0 (at node 0)
Average accepted packet rate = 1.70139e-05
Maximum accepted packet rate = 0.000626667 (at node 66)
Minimum injected flit rate = 0 (at node 0)
Average injected flit rate = 9.55556e-05
Maximum injected flit rate = 0.00480444 (at node 66)
Minimum accepted flit rate = 0 (at node 0)
Average accepted flit rate = 9.5625e-05
Maximum accepted flit rate = 0.00432444 (at node 66)
Total number of injected packets = 489
Total number of injected flits = 2752
Average injected packet length = 5.62781
Total number of accepted packets = 490
Total number of accepted flits = 2754
Average accepted packet length = 5.62041
Total in-flight flits = 9 (9 measured)
===== Time: 275000 =====
Class 0:
Packets read from trace = 1238 of 20989170 (0%)
Future packets = 1
Waiting packets = 1
Stalled packets = 638
Packets pending injection = 0
Packets in flight = 0
Minimum packet latency = 92
Average packet latency = 541.389
Maximum packet latency = 774
Minimum network latency = 91
Average network latency = 534.48
Maximum network latency = 774
Slowest packet = 154
Minimum flit latency = 50
Average flit latency = 501.736
Maximum flit latency = 733
Slowest flit = 898
Minimum fragmentation = 0
Average fragmentation = 25.5215
Maximum fragmentation = 65
Minimum injected packet rate = 0 (at node 0)
Average injected packet rate = 1.67187e-05
Maximum injected packet rate = 0.000844 (at node 66)
Minimum accepted packet rate = 0 (at node 0)
Average accepted packet rate = 1.67813e-05
Maximum accepted packet rate = 0.000604 (at node 66)
Minimum injected flit rate = 0 (at node 0)
Average injected flit rate = 9.27188e-05
Maximum injected flit rate = 0.004652 (at node 66)
Minimum accepted flit rate = 0 (at node 0)
Average accepted flit rate = 9.30313e-05
Maximum accepted flit rate = 0.004252 (at node 66)
Total number of injected packets = 535
Total number of injected flits = 2967
Average injected packet length = 5.54579
Total number of accepted packets = 537
Total number of accepted flits = 2977
Average accepted packet length = 5.54376
Total in-flight flits = 0 (0 measured)
===== Time: 300000 =====
Class 0:
Packets read from trace = 1252 of 20989170 (0%)
Future packets = 1
Waiting packets = 0
Stalled packets = 607
Packets pending injection = 0
Packets in flight = 2
Minimum packet latency = 92
Average packet latency = 540.485
Maximum packet latency = 774
Minimum network latency = 91
Average network latency = 533.615
Maximum network latency = 774
Slowest packet = 154
Minimum flit latency = 50
Average flit latency = 504.087
Maximum flit latency = 733
Slowest flit = 898
Minimum fragmentation = 0
Average fragmentation = 25.2366
Maximum fragmentation = 65
Minimum injected packet rate = 0 (at node 0)
Average injected packet rate = 1.65057e-05
Maximum injected packet rate = 0.000829091 (at node 66)
Minimum accepted packet rate = 0 (at node 0)
Average accepted packet rate = 1.65057e-05
Maximum accepted packet rate = 0.000585455 (at node 66)
Minimum injected flit rate = 0 (at node 0)
Average injected flit rate = 9.05966e-05
Maximum injected flit rate = 0.00449455 (at node 66)
Minimum accepted flit rate = 0 (at node 0)
Average accepted flit rate = 9.05966e-05
Maximum accepted flit rate = 0.00419273 (at node 66)
Total number of injected packets = 581
Total number of injected flits = 3189
Average injected packet length = 5.48881
Total number of accepted packets = 581
Total number of accepted flits = 3189
Average accepted packet length = 5.48881
Total in-flight flits = 10 (10 measured)
===== Time: 325000 =====
Class 0:
Packets read from trace = 1280 of 20989170 (0%)
Future packets = 1
Waiting packets = 0
Stalled packets = 587
Packets pending injection = 0
Packets in flight = 1
Minimum packet latency = 92
Average packet latency = 540.559
Maximum packet latency = 774
Minimum network latency = 91
Average network latency = 533.634
Maximum network latency = 774
Slowest packet = 154
Minimum flit latency = 50
Average flit latency = 506.516
Maximum flit latency = 733
Slowest flit = 898
Minimum fragmentation = 0
Average fragmentation = 25.0096
Maximum fragmentation = 65
Minimum injected packet rate = 0 (at node 0)
Average injected packet rate = 1.63802e-05
Maximum injected packet rate = 0.000813333 (at node 66)
Minimum accepted packet rate = 0 (at node 0)
Average accepted packet rate = 1.64062e-05
Maximum accepted packet rate = 0.000566667 (at node 66)
Minimum injected flit rate = 0 (at node 0)
Average injected flit rate = 8.90885e-05
Maximum injected flit rate = 0.00436 (at node 66)
Minimum accepted flit rate = 0 (at node 0)
Average accepted flit rate = 8.93229e-05
Maximum accepted flit rate = 0.00408667 (at node 66)
Total number of injected packets = 629
Total number of injected flits = 3421
Average injected packet length = 5.43879
Total number of accepted packets = 630
Total number of accepted flits = 3430
Average accepted packet length = 5.44444
Total in-flight flits = 1 (1 measured)
Completed measurements after 325000 cycles.
Draining remaining packets ...
Time taken is 325236 cycles
====== Traffic class 0 ======

Total number of flits generated = 3796, changed lanes = 0
Overall minimum packet latency = 92 (1 samples)
Overall average packet latency = 540.189 (1 samples)
Overall maximum packet latency = 774 (1 samples)
Overall minimum network latency = 91 (1 samples)
Overall average network latency = 533.275 (1 samples)
Overall maximum network latency = 774 (1 samples)
Overall minimum flit latency = 50 (1 samples)
Overall average flit latency = 506.458 (1 samples)
Overall maximum flit latency = 733 (1 samples)
Overall minimum fragmentation = 0 (1 samples)
Overall average fragmentation = 24.9698 (1 samples)
Overall maximum fragmentation = 65 (1 samples)
Overall minimum injected packet rate = 0 (1 samples)
Overall average injected packet rate = 1.63802e-05 (1 samples)
Overall maximum injected packet rate = 0.000813333 (1 samples)
Overall minimum accepted packet rate = 0 (1 samples)
Overall average accepted packet rate = 1.64062e-05 (1 samples)
Overall maximum accepted packet rate = 0.000566667 (1 samples)
Overall minimum injected flit rate = 0 (1 samples)
Overall average injected flit rate = 8.90885e-05 (1 samples)
Overall maximum injected flit rate = 0.00436 (1 samples)
Overall minimum accepted flit rate = 0 (1 samples)
Overall average accepted flit rate = 8.93229e-05 (1 samples)
Overall maximum accepted flit rate = 0.00408667 (1 samples)
Overall average injected packet size = 5.43879 (1 samples)
Overall average accepted packet size = 5.44444 (1 samples)
Overall average hops = 9.75994 (1 samples)
Overall throughput of the network (flits/cycle) = 0.0126533
Overall throughput of the network (packets/cycle) = 0.00230667
CSV Result Header , avgFLat,avgFInjRate
CSV Result ,506.458,1.63802e-05
Overall workload runtime = 300000 (1 samples)

The distribution of the source packets of size 1 is: 

Source [0] = 0
Source [1] = 0
Source [2] = 121
Source [3] = 0
Source [4] = 0
Source [5] = 0
Source [6] = 0
Source [7] = 0
Source [8] = 0
Source [9] = 0
Source [10] = 0
Source [11] = 0
Source [12] = 0
Source [13] = 0
Source [14] = 0
Source [15] = 0
Source [16] = 0
Source [17] = 0
Source [18] = 0
Source [19] = 0
Source [20] = 0
Source [21] = 0
Source [22] = 0
Source [23] = 0
Source [24] = 0
Source [25] = 0
Source [26] = 0
Source [27] = 0
Source [28] = 0
Source [29] = 0
Source [30] = 0
Source [31] = 0
Source [32] = 0
Source [33] = 0
Source [34] = 0
Source [35] = 0
Source [36] = 0
Source [37] = 0
Source [38] = 44
Source [39] = 18
Source [40] = 41
Source [41] = 19
Source [42] = 0
Source [43] = 0
Source [44] = 0
Source [45] = 0
Source [46] = 0
Source [47] = 0
Source [48] = 0
Source [49] = 0
Source [50] = 0
Source [51] = 0
Source [52] = 0
Source [53] = 0
Source [54] = 0
Source [55] = 0
Source [56] = 0
Source [57] = 0
Source [58] = 44
Source [59] = 0
Source [60] = 0
Source [61] = 17
Source [62] = 0
Source [63] = 0
The distribution of the source packets of size 9 is: 

Source [0] = 0
Source [1] = 1
Source [2] = 148
Source [3] = 4
Source [4] = 6
Source [5] = 23
Source [6] = 14
Source [7] = 4
Source [8] = 0
Source [9] = 1
Source [10] = 1
Source [11] = 0
Source [12] = 0
Source [13] = 0
Source [14] = 0
Source [15] = 0
Source [16] = 0
Source [17] = 1
Source [18] = 0
Source [19] = 0
Source [20] = 0
Source [21] = 2
Source [22] = 1
Source [23] = 1
Source [24] = 0
Source [25] = 1
Source [26] = 0
Source [27] = 0
Source [28] = 0
Source [29] = 1
Source [30] = 0
Source [31] = 0
Source [32] = 1
Source [33] = 0
Source [34] = 0
Source [35] = 0
Source [36] = 0
Source [37] = 0
Source [38] = 45
Source [39] = 15
Source [40] = 58
Source [41] = 40
Source [42] = 0
Source [43] = 0
Source [44] = 1
Source [45] = 1
Source [46] = 0
Source [47] = 0
Source [48] = 1
Source [49] = 3
Source [50] = 0
Source [51] = 3
Source [52] = 1
Source [53] = 0
Source [54] = 7
Source [55] = 0
Source [56] = 0
Source [57] = 2
Source [58] = 0
Source [59] = 1
Source [60] = 0
Source [61] = 0
Source [62] = 0
Source [63] = 0
The distribution of the dest packets of size 1 is: 

dest [0] = 0
dest [1] = 0
dest [2] = 42
dest [3] = 0
dest [4] = 0
dest [5] = 19
dest [6] = 0
dest [7] = 0
dest [8] = 0
dest [9] = 0
dest [10] = 0
dest [11] = 0
dest [12] = 0
dest [13] = 0
dest [14] = 0
dest [15] = 0
dest [16] = 0
dest [17] = 0
dest [18] = 0
dest [19] = 0
dest [20] = 0
dest [21] = 0
dest [22] = 0
dest [23] = 0
dest [24] = 0
dest [25] = 0
dest [26] = 0
dest [27] = 0
dest [28] = 0
dest [29] = 0
dest [30] = 0
dest [31] = 0
dest [32] = 0
dest [33] = 0
dest [34] = 0
dest [35] = 0
dest [36] = 0
dest [37] = 0
dest [38] = 88
dest [39] = 34
dest [40] = 41
dest [41] = 19
dest [42] = 0
dest [43] = 0
dest [44] = 0
dest [45] = 0
dest [46] = 0
dest [47] = 0
dest [48] = 0
dest [49] = 0
dest [50] = 0
dest [51] = 0
dest [52] = 0
dest [53] = 0
dest [54] = 0
dest [55] = 0
dest [56] = 0
dest [57] = 0
dest [58] = 44
dest [59] = 0
dest [60] = 0
dest [61] = 17
dest [62] = 0
dest [63] = 0
The distribution of the dest packets of size 9 is: 

dest [0] = 0
dest [1] = 1
dest [2] = 147
dest [3] = 3
dest [4] = 15
dest [5] = 36
dest [6] = 19
dest [7] = 6
dest [8] = 2
dest [9] = 0
dest [10] = 1
dest [11] = 0
dest [12] = 0
dest [13] = 0
dest [14] = 3
dest [15] = 1
dest [16] = 5
dest [17] = 0
dest [18] = 0
dest [19] = 0
dest [20] = 0
dest [21] = 0
dest [22] = 1
dest [23] = 10
dest [24] = 2
dest [25] = 0
dest [26] = 0
dest [27] = 0
dest [28] = 1
dest [29] = 0
dest [30] = 0
dest [31] = 0
dest [32] = 4
dest [33] = 0
dest [34] = 0
dest [35] = 0
dest [36] = 0
dest [37] = 1
dest [38] = 3
dest [39] = 2
dest [40] = 50
dest [41] = 22
dest [42] = 0
dest [43] = 0
dest [44] = 0
dest [45] = 0
dest [46] = 1
dest [47] = 8
dest [48] = 2
dest [49] = 0
dest [50] = 0
dest [51] = 1
dest [52] = 4
dest [53] = 2
dest [54] = 4
dest [55] = 0
dest [56] = 0
dest [57] = 0
dest [58] = 26
dest [59] = 0
dest [60] = 0
dest [61] = 5
dest [62] = 0
dest [63] = 0
Power Report Header, Frequency, Time, StaticIQ, DynamicIQ, StaticVC, DynamicVC, StaticSA, DynamicSA, StaticST, DynamicST, StaticLink, DynamicLink, NoFlits, ePerFlit
Power Report,3.9e+08,325236,0.131875,0.000448002,0.00749762,2.44541e-06,0.00224928,2.80303e-06,0.477597,0.000128184,0.0905466,0.000316884,3796,1.56125e-07

*****************************************
Total run time 65.678
generate:0x7ffdfafd4490
delete:0x7ffdfafd4490
L = 2 K = 8.1 M = 2 N = 1
-----------------------------------------
- OCN Power Summary
- Completion Time:         325236
- Flit Widths:            64
- Channel Wire Power:      0.0426892
- Channel Clock Power:     1.46183
- Channel Retiming Power:  0.00053039
- Channel Leakage Power:   0.551082
- Input Read Power:        0.00129716
- Input Write Power:       0.00129716
- Input Leakage Power:     0.113246
- Switch Power:            0.00282746
- Switch Control Power:    0.00145635
- Switch Leakage Power:    0.771052
- Output DFF Power:        0.000302326
- Output Clk Power:        0.727126
- Output Control Power:    0.000156025
- Total Power:             3.67489
-----------------------------------------

-----------------------------------------
- OCN Area Summary
- Channel Area:  0.109536
- Switch  Area:  0.241592
- Input  Area:   0.120796
- Output  Area:  0.0201327
- Total Area:    0.492056
-----------------------------------------
CSV Power Result Header , Completion Time, Channel Wire, Channel Clock, Channel Retiming, Channel Leakage, Input Read, Input Write, Input Leakage, Switch Power, Switch Control, Switch Leakage, Output DFF, Output Clk, Output Control
CSV Power Result , 325236, 0.0426892, 1.46183, 0.00053039, 0.551082, 0.00129716, 0.00129716, 0.113246, 0.00282746, 0.00145635, 0.771052, 0.000302326, 0.727126, 0.000156025
delete:0x7ffdfafd4490
delete:0x7ffdfafd4490
delete:0x7ffdfafd4490
delete:0x7ffdfafd4490
delete:0x7ffdfafd4490
delete:0x7ffdfafd4490
