generate:0x7fffb849dfa0
generate:0x7fffb849e058
generate:0x7fffb849e110
generate:0x7fffb849e1c8
generate:0x7fffb849e280
generate:0x7fffb849e3f0
BEGIN Configuration File: interposer3
//topology
topology = mesh;
k = 8;
n = 2;
type = interposer;
// Routing
routing_function = dor;

// Flow control
num_vcs     = 2;
vc_buf_size = 8;
wait_for_tail_credit = 1;
hold_switch_for_packet = 1;

// Router architecture
vc_allocator = islip;
sw_allocator = islip;
alloc_iters  = 1;

credit_delay   = 0;
routing_delay  = 1;
vc_alloc_delay = 1;
sw_alloc_delay = 1;
st_final_delay = 1;

input_speedup     = 1;
output_speedup    = 1;
internal_speedup  = 1.0;
vc_busy_when_full = 0;


//granulaity
latency_thres=20000.0;
deadlock_warn_timeout=20000;
traceStretch=3;

//gating
doGating=0;
sleepThreshold=40;
breakEvenThreshold=80;



//Syn Traffic
//sim_type=latency;
sim_type=throughput;
traffic=uniform;
packet_size = 1;
sample_period=5000;
warmup_periods=1;
max_samples=10;
injection_rate=0.020;

creditDelays=creditDelays({0,0,0,0,0,0,0,0,0,0,0,0,0,0,0,0,0,0,0,0,0,0,0,0,0,0,0,0,0,0,0,0,0,0,0,0,0,0,0,0,0,0,0,0,0,0,0,0,0,0,0,0,0,0,0,0,0,0,0,0,0,0,0,0});
routingDelays=routingDelays({7,7,7,7,7,7,7,7,7,7,7,7,7,7,7,7,7,7,7,7,7,7,7,7,7,7,7,7,7,7,7,7,7,7,7,7,7,7,7,7,7,7,7,7,7,7,7,7,7,7,7,7,7,7,7,7,7,7,7,7,7,7,7,7});
vcAllocDelays=vcAllocDelays({7,7,7,7,7,7,7,7,7,7,7,7,7,7,7,7,7,7,7,7,7,7,7,7,7,7,7,7,7,7,7,7,7,7,7,7,7,7,7,7,7,7,7,7,7,7,7,7,7,7,7,7,7,7,7,7,7,7,7,7,7,7,7,7});
swAllocDelays=swAllocDelays({7,7,7,7,7,7,7,7,7,7,7,7,7,7,7,7,7,7,7,7,7,7,7,7,7,7,7,7,7,7,7,7,7,7,7,7,7,7,7,7,7,7,7,7,7,7,7,7,7,7,7,7,7,7,7,7,7,7,7,7,7,7,7,7});
stFinalDelays=stFinalDelays({7,7,7,7,7,7,7,7,7,7,7,7,7,7,7,7,7,7,7,7,7,7,7,7,7,7,7,7,7,7,7,7,7,7,7,7,7,7,7,7,7,7,7,7,7,7,7,7,7,7,7,7,7,7,7,7,7,7,7,7,7,7,7,7});
//channelDelays=channelDelays({1,1,1,1,1,1,1,1,1,1,1,1,1,1,1,1,1,1,1,1,1,1,1,1,1,1,1,1,1,1,1,1,1,1,1,1,1,1,1,1,1,1,1,1,1,1,1,1,1,1,1,1,1,1,1,1,1,1,1,1,1,1,1,1});

isAsync=isAsync({0,0,0,0,0,0,0,0,0,0,0,0,0,0,0,0,0,0,0,0,0,0,0,0,0,0,0,0,0,0,0,0,0,0,0,0,0,0,0,0,0,0,0,0,0,0,0,0,0,0,0,0,0,0,0,0,0,0,0,0,0,0,0,0});
isMetaUnstable=isMetaUnstable({0,0,0,0,0,0,0,0,0,0,0,0,0,0,0,0,0,0,0,0,0,0,0,0,0,0,0,0,0,0,0,0,0,0,0,0,0,0,0,0,0,0,0,0,0,0,0,0,0,0,0,0,0,0,0,0,0,0,0,0,0,0,0,0});

creditDelayStdDevs=creditDelayStdDevs({0,0,0,0,0,0,0,0,0,0,0,0,0,0,0,0,0,0,0,0,0,0,0,0,0,0,0,0,0,0,0,0,0,0,0,0,0,0,0,0,0,0,0,0,0,0,0,0,0,0,0,0,0,0,0,0,0,0,0,0,0,0,0,0});
routingDelayStdDevs=routingDelayStdDevs({0,0,0,0,0,0,0,0,0,0,0,0,0,0,0,0,0,0,0,0,0,0,0,0,0,0,0,0,0,0,0,0,0,0,0,0,0,0,0,0,0,0,0,0,0,0,0,0,0,0,0,0,0,0,0,0,0,0,0,0,0,0,0,0});
vcAllocDelayStdDevs=vcAllocDelayStdDevs({0,0,0,0,0,0,0,0,0,0,0,0,0,0,0,0,0,0,0,0,0,0,0,0,0,0,0,0,0,0,0,0,0,0,0,0,0,0,0,0,0,0,0,0,0,0,0,0,0,0,0,0,0,0,0,0,0,0,0,0,0,0,0,0});
swAllocDelayStdDevs=swAllocDelayStdDevs({0,0,0,0,0,0,0,0,0,0,0,0,0,0,0,0,0,0,0,0,0,0,0,0,0,0,0,0,0,0,0,0,0,0,0,0,0,0,0,0,0,0,0,0,0,0,0,0,0,0,0,0,0,0,0,0,0,0,0,0,0,0,0,0});
stFinalDelayStdDevs=stFinalDelayStdDevs({0,0,0,0,0,0,0,0,0,0,0,0,0,0,0,0,0,0,0,0,0,0,0,0,0,0,0,0,0,0,0,0,0,0,0,0,0,0,0,0,0,0,0,0,0,0,0,0,0,0,0,0,0,0,0,0,0,0,0,0,0,0,0,0});

  
swAllocThresholds=swAllocThresholds({1,1,1,1,1,1,1,1,1,1,1,1,1,1,1,1,1,1,1,1,1,1,1,1,1,1,1,1,1,1,1,1,1,1,1,1,1,1,1,1,1,1,1,1,1,1,1,1,1,1,1,1,1,1,1,1,1,1,1,1,1,1,1,1});
swAllocThresholdStdDevs=swAllocThresholdStdDevs({0,0,0,0,0,0,0,0,0,0,0,0,0,0,0,0,0,0,0,0,0,0,0,0,0,0,0,0,0,0,0,0,0,0,0,0,0,0,0,0,0,0,0,0,0,0,0,0,0,0,0,0,0,0,0,0,0,0,0,0,0,0,0,0});
swAllocMetaStableThresholds=swAllocMetaStableThresholds({1,1,1,1,1,1,1,1,1,1,1,1,1,1,1,1,1,1,1,1,1,1,1,1,1,1,1,1,1,1,1,1,1,1,1,1,1,1,1,1,1,1,1,1,1,1,1,1,1,1,1,1,1,1,1,1,1,1,1,1,1,1,1,1});
swAllocMetaStableMaxPenalities=swAllocMetaStableMaxPenalities({0,0,0,0,0,0,0,0,0,0,0,0,0,0,0,0,0,0,0,0,0,0,0,0,0,0,0,0,0,0,0,0,0,0,0,0,0,0,0,0,0,0,0,0,0,0,0,0,0,0,0,0,0,0,0,0,0,0,0,0,0,0,0,0});

END Configuration File: interposer3
BEGIN Configuration File: chip1_1
//topology
topology = mesh;
k = 4;
n = 2;
type = chip;
start_point = 0;
cnum=1;
// Routing
routing_function = dor;

// Flow control
num_vcs     = 2;
vc_buf_size = 8;
wait_for_tail_credit = 1;
hold_switch_for_packet = 1;

// Router architecture
vc_allocator = islip;
sw_allocator = islip;
alloc_iters  = 1;

credit_delay   = 1;
routing_delay  = 1;
vc_alloc_delay = 1;
sw_alloc_delay = 1;
st_final_delay = 1;

input_speedup     = 1;
output_speedup    = 1;
internal_speedup  = 1.0;
vc_busy_when_full = 0;


//granulaity
latency_thres=20000.0;
deadlock_warn_timeout=20000;
traceStretch=3;

//gating
doGating=0;
sleepThreshold=40;
breakEvenThreshold=80;



//Syn Traffic
sim_type=latency;
traffic=uniform;
packet_size = 1;
sample_period=50000;
warmup_periods=1;
max_samples=12;
injection_rate=0.01;

//creditDelays=creditDelays({0,0,0,0,0,0,0,0,0,0,0,0,0,0,0,0});
//routingDelays=routingDelays({1,1,1,1,1,1,1,1,1,1,1,1,1,1,1,1});
//vcAllocDelays=vcAllocDelays({1,1,1,1,1,1,1,1,1,1,1,1,1,1,1,1});
//swAllocDelays=swAllocDelays({1,1,1,1,1,1,1,1,1,1,1,1,1,1,1,1});
//stFinalDelays=stFinalDelays({1,1,1,1,1,1,1,1,1,1,1,1,1,1,1,1});
//channelDelays=channelDelays({1,1,1,1,1,1,1,1,1,1,1,1,1,1,1,1});

creditDelays=creditDelays({0,0,0,0,0,0,0,0,0,0,0,0,0,0,0,0,0,0,0,0,0,0,0,0,0,0,0,0,0,0,0,0,0,0,0,0,0,0,0,0,0,0,0,0,0,0,0,0,0,0,0,0,0,0,0,0,0,0,0,0,0,0,0,0}});
routingDelays=routingDelays({15,15,15,15,15,15,15,15,15,15,15,15,15,15,15,15,15,15,15,15,15,15,15,15,15,15,15,15,15,15,15,15,15,15,15,15,15,15,15,15,15,15,15,15,15,15,15,15,15,15,15,15,15,15,15,15,15,15,15,15,15,15,15,15});
vcAllocDelays=vcAllocDelays({15,15,15,15,15,15,15,15,15,15,15,15,15,15,15,15,15,15,15,15,15,15,15,15,15,15,15,15,15,15,15,15,15,15,15,15,15,15,15,15,15,15,15,15,15,15,15,15,15,15,15,15,15,15,15,15,15,15,15,15,15,15,15,15});
swAllocDelays=swAllocDelays({15,15,15,15,15,15,15,15,15,15,15,15,15,15,15,15,15,15,15,15,15,15,15,15,15,15,15,15,15,15,15,15,15,15,15,15,15,15,15,15,15,15,15,15,15,15,15,15,15,15,15,15,15,15,15,15,15,15,15,15,15,15,15,15});
stFinalDelays=stFinalDelays({15,15,15,15,15,15,15,15,15,15,15,15,15,15,15,15,15,15,15,15,15,15,15,15,15,15,15,15,15,15,15,15,15,15,15,15,15,15,15,15,15,15,15,15,15,15,15,15,15,15,15,15,15,15,15,15,15,15,15,15,15,15,15,15});


isAsync=isAsync({1,1,1,1,1,1,1,1,1,1,1,1,1,1,1,1});
isMetaUnstable=isMetaUnstable({0,0,0,0,0,0,0,0,0,0,0,0,0,0,0,0});

creditDelayStdDevs=creditDelayStdDevs({0,0,0,0,0,0,0,0,0,0,0,0,0,0,0,0});
routingDelayStdDevs=routingDelayStdDevs({0,0,0,0,0,0,0,0,0,0,0,0,0,0,0,0});
vcAllocDelayStdDevs=vcAllocDelayStdDevs({0,0,0,0,0,0,0,0,0,0,0,0,0,0,0,0});
swAllocDelayStdDevs=swAllocDelayStdDevs({0,0,0,0,0,0,0,0,0,0,0,0,0,0,0,0});
stFinalDelayStdDevs=stFinalDelayStdDevs({0,0,0,0,0,0,0,0,0,0,0,0,0,0,0,0});

  
swAllocThresholds=swAllocThresholds({1,1,1,1,1,1,1,1,1,1,1,1,1,1,1,1});
swAllocThresholdStdDevs=swAllocThresholdStdDevs({0,0,0,0,0,0,0,0,0,0,0,0,0,0,0,0});
swAllocMetaStableThresholds=swAllocMetaStableThresholds({1,1,1,1,1,1,1,1,1,1,1,1,1,1,1,1});
swAllocMetaStableMaxPenalities=swAllocMetaStableMaxPenalities({0,0,0,0,0,0,0,0,0,0,0,0,0,0,0,0});

END Configuration File: chip1_1
BEGIN Configuration File: chip2_1
//topology
topology = mesh;
k = 4;
n = 2;
type = chip;
//start_point = 2;
start_point = 4;
cnum = 2;
// Routing
routing_function = dor;

// Flow control
num_vcs     = 2;
vc_buf_size = 8;
wait_for_tail_credit = 1;
hold_switch_for_packet = 1;

// Router architecture
vc_allocator = islip;
sw_allocator = islip;
alloc_iters  = 1;

credit_delay   = 1;
routing_delay  = 1;
vc_alloc_delay = 1;
sw_alloc_delay = 1;
st_final_delay = 1;

input_speedup     = 1;
output_speedup    = 1;
internal_speedup  = 1.0;
vc_busy_when_full = 0;


//granulaity
latency_thres=20000.0;
deadlock_warn_timeout=20000;
traceStretch=3;

//gating
doGating=0;
sleepThreshold=40;
breakEvenThreshold=80;



//Syn Traffic
sim_type=latency;
traffic=uniform;
packet_size = 1;
sample_period=50000;
warmup_periods=3;
max_samples=14;
injection_rate=0.01;

creditDelays=creditDelays({0,0,0,0,0,0,0,0,0,0,0,0,0,0,0,0,0,0,0,0,0,0,0,0,0,0,0,0,0,0,0,0,0,0,0,0,0,0,0,0,0,0,0,0,0,0,0,0,0,0,0,0,0,0,0,0,0,0,0,0,0,0,0,0}});
routingDelays=routingDelays({15,15,15,15,15,15,15,15,15,15,15,15,15,15,15,15,15,15,15,15,15,15,15,15,15,15,15,15,15,15,15,15,15,15,15,15,15,15,15,15,15,15,15,15,15,15,15,15,15,15,15,15,15,15,15,15,15,15,15,15,15,15,15,15});
vcAllocDelays=vcAllocDelays({15,15,15,15,15,15,15,15,15,15,15,15,15,15,15,15,15,15,15,15,15,15,15,15,15,15,15,15,15,15,15,15,15,15,15,15,15,15,15,15,15,15,15,15,15,15,15,15,15,15,15,15,15,15,15,15,15,15,15,15,15,15,15,15});
swAllocDelays=swAllocDelays({15,15,15,15,15,15,15,15,15,15,15,15,15,15,15,15,15,15,15,15,15,15,15,15,15,15,15,15,15,15,15,15,15,15,15,15,15,15,15,15,15,15,15,15,15,15,15,15,15,15,15,15,15,15,15,15,15,15,15,15,15,15,15,15});
stFinalDelays=stFinalDelays({15,15,15,15,15,15,15,15,15,15,15,15,15,15,15,15,15,15,15,15,15,15,15,15,15,15,15,15,15,15,15,15,15,15,15,15,15,15,15,15,15,15,15,15,15,15,15,15,15,15,15,15,15,15,15,15,15,15,15,15,15,15,15,15});


isAsync=isAsync({1,1,1,1,1,1,1,1,1,1,1,1,1,1,1,1});
isMetaUnstable=isMetaUnstable({0,0,0,0,0,0,0,0,0,0,0,0,0,0,0,0});

creditDelayStdDevs=creditDelayStdDevs({0,0,0,0,0,0,0,0,0,0,0,0,0,0,0,0});
routingDelayStdDevs=routingDelayStdDevs({0,0,0,0,0,0,0,0,0,0,0,0,0,0,0,0});
vcAllocDelayStdDevs=vcAllocDelayStdDevs({0,0,0,0,0,0,0,0,0,0,0,0,0,0,0,0});
swAllocDelayStdDevs=swAllocDelayStdDevs({0,0,0,0,0,0,0,0,0,0,0,0,0,0,0,0});
stFinalDelayStdDevs=stFinalDelayStdDevs({0,0,0,0,0,0,0,0,0,0,0,0,0,0,0,0});

  
swAllocThresholds=swAllocThresholds({1,1,1,1,1,1,1,1,1,1,1,1,1,1,1,1});
swAllocThresholdStdDevs=swAllocThresholdStdDevs({0,0,0,0,0,0,0,0,0,0,0,0,0,0,0,0});
swAllocMetaStableThresholds=swAllocMetaStableThresholds({1,1,1,1,1,1,1,1,1,1,1,1,1,1,1,1});
swAllocMetaStableMaxPenalities=swAllocMetaStableMaxPenalities({0,0,0,0,0,0,0,0,0,0,0,0,0,0,0,0});

END Configuration File: chip2_1
BEGIN Configuration File: chip3_1
//topology
topology = mesh;
k = 4;
n = 2;
type = chip;
//start_point = 8;
start_point = 32;
cnum = 3;
// Routing
routing_function = dor;

// Flow control
num_vcs     = 2;
vc_buf_size = 8;
wait_for_tail_credit = 1;
hold_switch_for_packet = 1;

// Router architecture
vc_allocator = islip;
sw_allocator = islip;
alloc_iters  = 1;

credit_delay   = 1;
routing_delay  = 1;
vc_alloc_delay = 1;
sw_alloc_delay = 1;
st_final_delay = 1;

input_speedup     = 1;
output_speedup    = 1;
internal_speedup  = 1.0;
vc_busy_when_full = 0;


//granulaity
latency_thres=20000.0;
deadlock_warn_timeout=20000;
traceStretch=3;

//gating
doGating=0;
sleepThreshold=40;
breakEvenThreshold=80;



//Syn Traffic
sim_type=latency;
traffic=uniform;
packet_size = 1;
sample_period=50000;
warmup_periods=3;
max_samples=14;
injection_rate=0.01;

creditDelays=creditDelays({0,0,0,0,0,0,0,0,0,0,0,0,0,0,0,0,0,0,0,0,0,0,0,0,0,0,0,0,0,0,0,0,0,0,0,0,0,0,0,0,0,0,0,0,0,0,0,0,0,0,0,0,0,0,0,0,0,0,0,0,0,0,0,0}});
routingDelays=routingDelays({15,15,15,15,15,15,15,15,15,15,15,15,15,15,15,15,15,15,15,15,15,15,15,15,15,15,15,15,15,15,15,15,15,15,15,15,15,15,15,15,15,15,15,15,15,15,15,15,15,15,15,15,15,15,15,15,15,15,15,15,15,15,15,15});
vcAllocDelays=vcAllocDelays({15,15,15,15,15,15,15,15,15,15,15,15,15,15,15,15,15,15,15,15,15,15,15,15,15,15,15,15,15,15,15,15,15,15,15,15,15,15,15,15,15,15,15,15,15,15,15,15,15,15,15,15,15,15,15,15,15,15,15,15,15,15,15,15});
swAllocDelays=swAllocDelays({15,15,15,15,15,15,15,15,15,15,15,15,15,15,15,15,15,15,15,15,15,15,15,15,15,15,15,15,15,15,15,15,15,15,15,15,15,15,15,15,15,15,15,15,15,15,15,15,15,15,15,15,15,15,15,15,15,15,15,15,15,15,15,15});
stFinalDelays=stFinalDelays({15,15,15,15,15,15,15,15,15,15,15,15,15,15,15,15,15,15,15,15,15,15,15,15,15,15,15,15,15,15,15,15,15,15,15,15,15,15,15,15,15,15,15,15,15,15,15,15,15,15,15,15,15,15,15,15,15,15,15,15,15,15,15,15});


isAsync=isAsync({1,1,1,1,1,1,1,1,1,1,1,1,1,1,1,1});
isMetaUnstable=isMetaUnstable({0,0,0,0,0,0,0,0,0,0,0,0,0,0,0,0});

creditDelayStdDevs=creditDelayStdDevs({0,0,0,0,0,0,0,0,0,0,0,0,0,0,0,0});
routingDelayStdDevs=routingDelayStdDevs({0,0,0,0,0,0,0,0,0,0,0,0,0,0,0,0});
vcAllocDelayStdDevs=vcAllocDelayStdDevs({0,0,0,0,0,0,0,0,0,0,0,0,0,0,0,0});
swAllocDelayStdDevs=swAllocDelayStdDevs({0,0,0,0,0,0,0,0,0,0,0,0,0,0,0,0});
stFinalDelayStdDevs=stFinalDelayStdDevs({0,0,0,0,0,0,0,0,0,0,0,0,0,0,0,0});

  
swAllocThresholds=swAllocThresholds({1,1,1,1,1,1,1,1,1,1,1,1,1,1,1,1});
swAllocThresholdStdDevs=swAllocThresholdStdDevs({0,0,0,0,0,0,0,0,0,0,0,0,0,0,0,0});
swAllocMetaStableThresholds=swAllocMetaStableThresholds({1,1,1,1,1,1,1,1,1,1,1,1,1,1,1,1});
swAllocMetaStableMaxPenalities=swAllocMetaStableMaxPenalities({0,0,0,0,0,0,0,0,0,0,0,0,0,0,0,0});

END Configuration File: chip3_1
BEGIN Configuration File: chip4_1
//topology
topology = mesh;
k = 4;
n = 2;
type = chip;
//start_point = 10;
start_point = 36;
cnum = 4;
// Routing
routing_function = dor;

// Flow control
num_vcs     = 2;
vc_buf_size = 8;
wait_for_tail_credit = 1;
hold_switch_for_packet = 1;

// Router architecture
vc_allocator = islip;
sw_allocator = islip;
alloc_iters  = 1;

credit_delay   = 1;
routing_delay  = 1;
vc_alloc_delay = 1;
sw_alloc_delay = 1;
st_final_delay = 1;

input_speedup     = 1;
output_speedup    = 1;
internal_speedup  = 1.0;
vc_busy_when_full = 0;


//granulaity
latency_thres=20000.0;
deadlock_warn_timeout=20000;
traceStretch=3;

//gating
doGating=0;
sleepThreshold=40;
breakEvenThreshold=80;



//Syn Traffic
sim_type=latency;
traffic=uniform;
packet_size = 1;
sample_period=50000;
warmup_periods=3;
max_samples=14;
injection_rate=0.01;

creditDelays=creditDelays({0,0,0,0,0,0,0,0,0,0,0,0,0,0,0,0,0,0,0,0,0,0,0,0,0,0,0,0,0,0,0,0,0,0,0,0,0,0,0,0,0,0,0,0,0,0,0,0,0,0,0,0,0,0,0,0,0,0,0,0,0,0,0,0}});
routingDelays=routingDelays({15,15,15,15,15,15,15,15,15,15,15,15,15,15,15,15,15,15,15,15,15,15,15,15,15,15,15,15,15,15,15,15,15,15,15,15,15,15,15,15,15,15,15,15,15,15,15,15,15,15,15,15,15,15,15,15,15,15,15,15,15,15,15,15});
vcAllocDelays=vcAllocDelays({15,15,15,15,15,15,15,15,15,15,15,15,15,15,15,15,15,15,15,15,15,15,15,15,15,15,15,15,15,15,15,15,15,15,15,15,15,15,15,15,15,15,15,15,15,15,15,15,15,15,15,15,15,15,15,15,15,15,15,15,15,15,15,15});
swAllocDelays=swAllocDelays({15,15,15,15,15,15,15,15,15,15,15,15,15,15,15,15,15,15,15,15,15,15,15,15,15,15,15,15,15,15,15,15,15,15,15,15,15,15,15,15,15,15,15,15,15,15,15,15,15,15,15,15,15,15,15,15,15,15,15,15,15,15,15,15});
stFinalDelays=stFinalDelays({15,15,15,15,15,15,15,15,15,15,15,15,15,15,15,15,15,15,15,15,15,15,15,15,15,15,15,15,15,15,15,15,15,15,15,15,15,15,15,15,15,15,15,15,15,15,15,15,15,15,15,15,15,15,15,15,15,15,15,15,15,15,15,15});


isAsync=isAsync({1,1,1,1,1,1,1,1,1,1,1,1,1,1,1,1});
isMetaUnstable=isMetaUnstable({0,0,0,0,0,0,0,0,0,0,0,0,0,0,0,0});

creditDelayStdDevs=creditDelayStdDevs({0,0,0,0,0,0,0,0,0,0,0,0,0,0,0,0});
routingDelayStdDevs=routingDelayStdDevs({0,0,0,0,0,0,0,0,0,0,0,0,0,0,0,0});
vcAllocDelayStdDevs=vcAllocDelayStdDevs({0,0,0,0,0,0,0,0,0,0,0,0,0,0,0,0});
swAllocDelayStdDevs=swAllocDelayStdDevs({0,0,0,0,0,0,0,0,0,0,0,0,0,0,0,0});
stFinalDelayStdDevs=stFinalDelayStdDevs({0,0,0,0,0,0,0,0,0,0,0,0,0,0,0,0});

  
swAllocThresholds=swAllocThresholds({1,1,1,1,1,1,1,1,1,1,1,1,1,1,1,1});
swAllocThresholdStdDevs=swAllocThresholdStdDevs({0,0,0,0,0,0,0,0,0,0,0,0,0,0,0,0});
swAllocMetaStableThresholds=swAllocMetaStableThresholds({1,1,1,1,1,1,1,1,1,1,1,1,1,1,1,1});
swAllocMetaStableMaxPenalities=swAllocMetaStableMaxPenalities({0,0,0,0,0,0,0,0,0,0,0,0,0,0,0,0});

END Configuration File: chip4_1
rid:0 add output _25chan1
rid:0 add input _25chan0
rid:1 add output _25chan3
rid:1 add input _25chan2
rid:2 add output _25chan5
rid:2 add input _25chan4
rid:3 add output _25chan7
rid:3 add input _25chan6
rid:4 add output _25chan33
rid:4 add input _25chan32
rid:5 add output _25chan35
rid:5 add input _25chan34
rid:6 add output _25chan37
rid:6 add input _25chan36
rid:7 add output _25chan39
rid:7 add input _25chan38
rid:8 add output _25chan9
rid:8 add input _25chan8
rid:9 add output _25chan11
rid:9 add input _25chan10
rid:10 add output _25chan13
rid:10 add input _25chan12
rid:11 add output _25chan15
rid:11 add input _25chan14
rid:12 add output _25chan41
rid:12 add input _25chan40
rid:13 add output _25chan43
rid:13 add input _25chan42
rid:14 add output _25chan45
rid:14 add input _25chan44
rid:15 add output _25chan47
rid:15 add input _25chan46
rid:16 add output _25chan17
rid:16 add input _25chan16
rid:17 add output _25chan19
rid:17 add input _25chan18
rid:18 add output _25chan21
rid:18 add input _25chan20
rid:19 add output _25chan23
rid:19 add input _25chan22
rid:20 add output _25chan49
rid:20 add input _25chan48
rid:21 add output _25chan51
rid:21 add input _25chan50
rid:22 add output _25chan53
rid:22 add input _25chan52
rid:23 add output _25chan55
rid:23 add input _25chan54
rid:24 add output _25chan25
rid:24 add input _25chan24
rid:25 add output _25chan27
rid:25 add input _25chan26
rid:26 add output _25chan29
rid:26 add input _25chan28
rid:27 add output _25chan31
rid:27 add input _25chan30
rid:28 add output _25chan57
rid:28 add input _25chan56
rid:29 add output _25chan59
rid:29 add input _25chan58
rid:30 add output _25chan61
rid:30 add input _25chan60
rid:31 add output _25chan63
rid:31 add input _25chan62
rid:32 add output _25chan65
rid:32 add input _25chan64
rid:33 add output _25chan67
rid:33 add input _25chan66
rid:34 add output _25chan69
rid:34 add input _25chan68
rid:35 add output _25chan71
rid:35 add input _25chan70
rid:36 add output _25chan97
rid:36 add input _25chan96
rid:37 add output _25chan99
rid:37 add input _25chan98
rid:38 add output _25chan101
rid:38 add input _25chan100
rid:39 add output _25chan103
rid:39 add input _25chan102
rid:40 add output _25chan73
rid:40 add input _25chan72
rid:41 add output _25chan75
rid:41 add input _25chan74
rid:42 add output _25chan77
rid:42 add input _25chan76
rid:43 add output _25chan79
rid:43 add input _25chan78
rid:44 add output _25chan105
rid:44 add input _25chan104
rid:45 add output _25chan107
rid:45 add input _25chan106
rid:46 add output _25chan109
rid:46 add input _25chan108
rid:47 add output _25chan111
rid:47 add input _25chan110
rid:48 add output _25chan81
rid:48 add input _25chan80
rid:49 add output _25chan83
rid:49 add input _25chan82
rid:50 add output _25chan85
rid:50 add input _25chan84
rid:51 add output _25chan87
rid:51 add input _25chan86
rid:52 add output _25chan113
rid:52 add input _25chan112
rid:53 add output _25chan115
rid:53 add input _25chan114
rid:54 add output _25chan117
rid:54 add input _25chan116
rid:55 add output _25chan119
rid:55 add input _25chan118
rid:56 add output _25chan89
rid:56 add input _25chan88
rid:57 add output _25chan91
rid:57 add input _25chan90
rid:58 add output _25chan93
rid:58 add input _25chan92
rid:59 add output _25chan95
rid:59 add input _25chan94
rid:60 add output _25chan121
rid:60 add input _25chan120
rid:61 add output _25chan123
rid:61 add input _25chan122
rid:62 add output _25chan125
rid:62 add input _25chan124
rid:63 add output _25chan127
rid:63 add input _25chan126
rid:0 add output _25chan0
rid:0 add input _25chan1
rid:1 add output _25chan2
rid:1 add input _25chan3
rid:2 add output _25chan4
rid:2 add input _25chan5
rid:3 add output _25chan6
rid:3 add input _25chan7
rid:4 add output _25chan8
rid:4 add input _25chan9
rid:5 add output _25chan10
rid:5 add input _25chan11
rid:6 add output _25chan12
rid:6 add input _25chan13
rid:7 add output _25chan14
rid:7 add input _25chan15
rid:8 add output _25chan16
rid:8 add input _25chan17
rid:9 add output _25chan18
rid:9 add input _25chan19
rid:10 add output _25chan20
rid:10 add input _25chan21
rid:11 add output _25chan22
rid:11 add input _25chan23
rid:12 add output _25chan24
rid:12 add input _25chan25
rid:13 add output _25chan26
rid:13 add input _25chan27
rid:14 add output _25chan28
rid:14 add input _25chan29
rid:15 add output _25chan30
rid:15 add input _25chan31
rid:0 add output _25chan32
rid:0 add input _25chan33
rid:1 add output _25chan34
rid:1 add input _25chan35
rid:2 add output _25chan36
rid:2 add input _25chan37
rid:3 add output _25chan38
rid:3 add input _25chan39
rid:4 add output _25chan40
rid:4 add input _25chan41
rid:5 add output _25chan42
rid:5 add input _25chan43
rid:6 add output _25chan44
rid:6 add input _25chan45
rid:7 add output _25chan46
rid:7 add input _25chan47
rid:8 add output _25chan48
rid:8 add input _25chan49
rid:9 add output _25chan50
rid:9 add input _25chan51
rid:10 add output _25chan52
rid:10 add input _25chan53
rid:11 add output _25chan54
rid:11 add input _25chan55
rid:12 add output _25chan56
rid:12 add input _25chan57
rid:13 add output _25chan58
rid:13 add input _25chan59
rid:14 add output _25chan60
rid:14 add input _25chan61
rid:15 add output _25chan62
rid:15 add input _25chan63
rid:0 add output _25chan64
rid:0 add input _25chan65
rid:1 add output _25chan66
rid:1 add input _25chan67
rid:2 add output _25chan68
rid:2 add input _25chan69
rid:3 add output _25chan70
rid:3 add input _25chan71
rid:4 add output _25chan72
rid:4 add input _25chan73
rid:5 add output _25chan74
rid:5 add input _25chan75
rid:6 add output _25chan76
rid:6 add input _25chan77
rid:7 add output _25chan78
rid:7 add input _25chan79
rid:8 add output _25chan80
rid:8 add input _25chan81
rid:9 add output _25chan82
rid:9 add input _25chan83
rid:10 add output _25chan84
rid:10 add input _25chan85
rid:11 add output _25chan86
rid:11 add input _25chan87
rid:12 add output _25chan88
rid:12 add input _25chan89
rid:13 add output _25chan90
rid:13 add input _25chan91
rid:14 add output _25chan92
rid:14 add input _25chan93
rid:15 add output _25chan94
rid:15 add input _25chan95
rid:0 add output _25chan96
rid:0 add input _25chan97
rid:1 add output _25chan98
rid:1 add input _25chan99
rid:2 add output _25chan100
rid:2 add input _25chan101
rid:3 add output _25chan102
rid:3 add input _25chan103
rid:4 add output _25chan104
rid:4 add input _25chan105
rid:5 add output _25chan106
rid:5 add input _25chan107
rid:6 add output _25chan108
rid:6 add input _25chan109
rid:7 add output _25chan110
rid:7 add input _25chan111
rid:8 add output _25chan112
rid:8 add input _25chan113
rid:9 add output _25chan114
rid:9 add input _25chan115
rid:10 add output _25chan116
rid:10 add input _25chan117
rid:11 add output _25chan118
rid:11 add input _25chan119
rid:12 add output _25chan120
rid:12 add input _25chan121
rid:13 add output _25chan122
rid:13 add input _25chan123
rid:14 add output _25chan124
rid:14 add input _25chan125
rid:15 add output _25chan126
rid:15 add input _25chan127

Tick: 0M
===== Time: 5000 =====
Class 0:
Minimum packet latency = 62
Average packet latency = 836.51
Maximum packet latency = 3337
Minimum network latency = 63
Average network latency = 528.422
Maximum network latency = 2540
Slowest packet = 626
Minimum flit latency = 63
Average flit latency = 528.422
Maximum flit latency = 2540
Slowest flit = 2302
Minimum fragmentation = 0
Average fragmentation = 0
Maximum fragmentation = 0
Minimum injected packet rate = 0 (at node 0)
Average injected packet rate = 0.00761406
Maximum injected packet rate = 0.022 (at node 112)
Minimum accepted packet rate = 0 (at node 0)
Average accepted packet rate = 0.006775
Maximum accepted packet rate = 0.0174 (at node 115)
Minimum injected flit rate = 0 (at node 0)
Average injected flit rate = 0.00761406
Maximum injected flit rate = 0.022 (at node 112)
Minimum accepted flit rate = 0 (at node 0)
Average accepted flit rate = 0.006775
Maximum accepted flit rate = 0.0174 (at node 115)
Total number of injected packets = 4873
Total number of injected flits = 4873
Average injected packet length = 1
Total number of accepted packets = 4336
Total number of accepted flits = 4336
Average accepted packet length = 1
Total in-flight flits = 596 (0 measured)
class 0 latency change    = 1
class 0 throughput change = 1
Warmed up ...Time used is 5000 cycles
===== Time: 10000 =====
Class 0:
Minimum packet latency = 62
Average packet latency = 2002.85
Maximum packet latency = 6466
Minimum network latency = 63
Average network latency = 567.33
Maximum network latency = 3324
Slowest packet = 4942
Minimum flit latency = 63
Average flit latency = 615.037
Maximum flit latency = 4514
Slowest flit = 2335
Minimum fragmentation = 0
Average fragmentation = 0
Maximum fragmentation = 0
Minimum injected packet rate = 0 (at node 0)
Average injected packet rate = 0.00690937
Maximum injected packet rate = 0.022 (at node 103)
Minimum accepted packet rate = 0 (at node 0)
Average accepted packet rate = 0.00687969
Maximum accepted packet rate = 0.0168 (at node 78)
Minimum injected flit rate = 0 (at node 0)
Average injected flit rate = 0.00690937
Maximum injected flit rate = 0.022 (at node 103)
Minimum accepted flit rate = 0 (at node 0)
Average accepted flit rate = 0.00687969
Maximum accepted flit rate = 0.0168 (at node 78)
Total number of injected packets = 4422
Total number of injected flits = 4422
Average injected packet length = 1
Total number of accepted packets = 4403
Total number of accepted flits = 4403
Average accepted packet length = 1
Total in-flight flits = 614 (614 measured)
class 0 latency change    = 0.582339
class 0 throughput change = 0.0152169
===== Time: 15000 =====
Class 0:
Minimum packet latency = 62
Average packet latency = 2678.33
Maximum packet latency = 10220
Minimum network latency = 63
Average network latency = 593.563
Maximum network latency = 3324
Slowest packet = 4942
Minimum flit latency = 63
Average flit latency = 615.315
Maximum flit latency = 4514
Slowest flit = 2335
Minimum fragmentation = 0
Average fragmentation = 0
Maximum fragmentation = 0
Minimum injected packet rate = 0 (at node 0)
Average injected packet rate = 0.00698359
Maximum injected packet rate = 0.0213 (at node 103)
Minimum accepted packet rate = 0 (at node 0)
Average accepted packet rate = 0.00698281
Maximum accepted packet rate = 0.0165 (at node 88)
Minimum injected flit rate = 0 (at node 0)
Average injected flit rate = 0.00698359
Maximum injected flit rate = 0.0213 (at node 103)
Minimum accepted flit rate = 0 (at node 0)
Average accepted flit rate = 0.00698281
Maximum accepted flit rate = 0.0165 (at node 88)
Total number of injected packets = 8939
Total number of injected flits = 8939
Average injected packet length = 1
Total number of accepted packets = 8938
Total number of accepted flits = 8938
Average accepted packet length = 1
Total in-flight flits = 594 (594 measured)
class 0 latency change    = 0.252204
class 0 throughput change = 0.0147684
===== Time: 20000 =====
Class 0:
Minimum packet latency = 62
Average packet latency = 3300.46
Maximum packet latency = 12684
Minimum network latency = 63
Average network latency = 606.177
Maximum network latency = 3324
Slowest packet = 4942
Minimum flit latency = 63
Average flit latency = 620.229
Maximum flit latency = 4514
Slowest flit = 2335
Minimum fragmentation = 0
Average fragmentation = 0
Maximum fragmentation = 0
Minimum injected packet rate = 0 (at node 0)
Average injected packet rate = 0.00694271
Maximum injected packet rate = 0.0207333 (at node 67)
Minimum accepted packet rate = 0 (at node 0)
Average accepted packet rate = 0.0069276
Maximum accepted packet rate = 0.0158667 (at node 75)
Minimum injected flit rate = 0 (at node 0)
Average injected flit rate = 0.00694271
Maximum injected flit rate = 0.0207333 (at node 67)
Minimum accepted flit rate = 0 (at node 0)
Average accepted flit rate = 0.0069276
Maximum accepted flit rate = 0.0158667 (at node 75)
Total number of injected packets = 13330
Total number of injected flits = 13330
Average injected packet length = 1
Total number of accepted packets = 13301
Total number of accepted flits = 13301
Average accepted packet length = 1
Total in-flight flits = 624 (624 measured)
class 0 latency change    = 0.188497
class 0 throughput change = 0.00796933
===== Time: 25000 =====
Class 0:
Minimum packet latency = 62
Average packet latency = 3956.35
Maximum packet latency = 15653
Minimum network latency = 63
Average network latency = 608.814
Maximum network latency = 3640
Slowest packet = 4942
Minimum flit latency = 63
Average flit latency = 619.214
Maximum flit latency = 4514
Slowest flit = 2335
Minimum fragmentation = 0
Average fragmentation = 0
Maximum fragmentation = 0
Minimum injected packet rate = 0 (at node 0)
Average injected packet rate = 0.00697227
Maximum injected packet rate = 0.0206 (at node 92)
Minimum accepted packet rate = 0 (at node 0)
Average accepted packet rate = 0.00696133
Maximum accepted packet rate = 0.0155 (at node 87)
Minimum injected flit rate = 0 (at node 0)
Average injected flit rate = 0.00697227
Maximum injected flit rate = 0.0206 (at node 92)
Minimum accepted flit rate = 0 (at node 0)
Average accepted flit rate = 0.00696133
Maximum accepted flit rate = 0.0155 (at node 87)
Total number of injected packets = 17849
Total number of injected flits = 17849
Average injected packet length = 1
Total number of accepted packets = 17821
Total number of accepted flits = 17821
Average accepted packet length = 1
Total in-flight flits = 627 (627 measured)
class 0 latency change    = 0.165781
class 0 throughput change = 0.00484447
===== Time: 30000 =====
Class 0:
Minimum packet latency = 62
Average packet latency = 4591.2
Maximum packet latency = 18637
Minimum network latency = 63
Average network latency = 614.409
Maximum network latency = 4019
Slowest packet = 4942
Minimum flit latency = 63
Average flit latency = 622.617
Maximum flit latency = 4514
Slowest flit = 2335
Minimum fragmentation = 0
Average fragmentation = 0
Maximum fragmentation = 0
Minimum injected packet rate = 0 (at node 0)
Average injected packet rate = 0.00693031
Maximum injected packet rate = 0.02024 (at node 79)
Minimum accepted packet rate = 0 (at node 0)
Average accepted packet rate = 0.00692875
Maximum accepted packet rate = 0.01544 (at node 102)
Minimum injected flit rate = 0 (at node 0)
Average injected flit rate = 0.00693031
Maximum injected flit rate = 0.02024 (at node 79)
Minimum accepted flit rate = 0 (at node 0)
Average accepted flit rate = 0.00692875
Maximum accepted flit rate = 0.01544 (at node 102)
Total number of injected packets = 22177
Total number of injected flits = 22177
Average injected packet length = 1
Total number of accepted packets = 22172
Total number of accepted flits = 22172
Average accepted packet length = 1
Total in-flight flits = 602 (602 measured)
class 0 latency change    = 0.138276
class 0 throughput change = 0.00470188
===== Time: 35000 =====
Class 0:
Minimum packet latency = 62
Average packet latency = 5239.73
Maximum packet latency = 21240
Minimum network latency = 63
Average network latency = 617.439
Maximum network latency = 4019
Slowest packet = 4942
Minimum flit latency = 63
Average flit latency = 624.225
Maximum flit latency = 4514
Slowest flit = 2335
Minimum fragmentation = 0
Average fragmentation = 0
Maximum fragmentation = 0
Minimum injected packet rate = 0 (at node 0)
Average injected packet rate = 0.00692057
Maximum injected packet rate = 0.0204667 (at node 79)
Minimum accepted packet rate = 0 (at node 0)
Average accepted packet rate = 0.0069151
Maximum accepted packet rate = 0.0149667 (at node 87)
Minimum injected flit rate = 0 (at node 0)
Average injected flit rate = 0.00692057
Maximum injected flit rate = 0.0204667 (at node 79)
Minimum accepted flit rate = 0 (at node 0)
Average accepted flit rate = 0.0069151
Maximum accepted flit rate = 0.0149667 (at node 87)
Total number of injected packets = 26575
Total number of injected flits = 26575
Average injected packet length = 1
Total number of accepted packets = 26554
Total number of accepted flits = 26554
Average accepted packet length = 1
Total in-flight flits = 619 (619 measured)
class 0 latency change    = 0.123772
class 0 throughput change = 0.00197334
===== Time: 40000 =====
Class 0:
Minimum packet latency = 62
Average packet latency = 5894.2
Maximum packet latency = 24858
Minimum network latency = 63
Average network latency = 620.929
Maximum network latency = 4281
Slowest packet = 4942
Minimum flit latency = 63
Average flit latency = 626.686
Maximum flit latency = 4514
Slowest flit = 2335
Minimum fragmentation = 0
Average fragmentation = 0
Maximum fragmentation = 0
Minimum injected packet rate = 0 (at node 0)
Average injected packet rate = 0.00691518
Maximum injected packet rate = 0.0204571 (at node 112)
Minimum accepted packet rate = 0 (at node 0)
Average accepted packet rate = 0.00690625
Maximum accepted packet rate = 0.0151429 (at node 87)
Minimum injected flit rate = 0 (at node 0)
Average injected flit rate = 0.00691518
Maximum injected flit rate = 0.0204571 (at node 112)
Minimum accepted flit rate = 0 (at node 0)
Average accepted flit rate = 0.00690625
Maximum accepted flit rate = 0.0151429 (at node 87)
Total number of injected packets = 30980
Total number of injected flits = 30980
Average injected packet length = 1
Total number of accepted packets = 30940
Total number of accepted flits = 30940
Average accepted packet length = 1
Total in-flight flits = 639 (639 measured)
class 0 latency change    = 0.111037
class 0 throughput change = 0.00128205
===== Time: 45000 =====
Class 0:
Minimum packet latency = 62
Average packet latency = 6519.83
Maximum packet latency = 27308
Minimum network latency = 63
Average network latency = 620.881
Maximum network latency = 4281
Slowest packet = 4942
Minimum flit latency = 63
Average flit latency = 625.908
Maximum flit latency = 4514
Slowest flit = 2335
Minimum fragmentation = 0
Average fragmentation = 0
Maximum fragmentation = 0
Minimum injected packet rate = 0 (at node 0)
Average injected packet rate = 0.00692715
Maximum injected packet rate = 0.02065 (at node 112)
Minimum accepted packet rate = 0 (at node 0)
Average accepted packet rate = 0.00692031
Maximum accepted packet rate = 0.0151 (at node 87)
Minimum injected flit rate = 0 (at node 0)
Average injected flit rate = 0.00692715
Maximum injected flit rate = 0.02065 (at node 112)
Minimum accepted flit rate = 0 (at node 0)
Average accepted flit rate = 0.00692031
Maximum accepted flit rate = 0.0151 (at node 87)
Total number of injected packets = 35467
Total number of injected flits = 35467
Average injected packet length = 1
Total number of accepted packets = 35432
Total number of accepted flits = 35432
Average accepted packet length = 1
Total in-flight flits = 633 (633 measured)
class 0 latency change    = 0.095958
class 0 throughput change = 0.00203206
===== Time: 50000 =====
Class 0:
Minimum packet latency = 62
Average packet latency = 7165.51
Maximum packet latency = 29961
Minimum network latency = 63
Average network latency = 621.743
Maximum network latency = 4281
Slowest packet = 4942
Minimum flit latency = 63
Average flit latency = 626.199
Maximum flit latency = 4514
Slowest flit = 2335
Minimum fragmentation = 0
Average fragmentation = 0
Maximum fragmentation = 0
Minimum injected packet rate = 0 (at node 0)
Average injected packet rate = 0.00692552
Maximum injected packet rate = 0.0206 (at node 112)
Minimum accepted packet rate = 0 (at node 0)
Average accepted packet rate = 0.00692118
Maximum accepted packet rate = 0.0152 (at node 78)
Minimum injected flit rate = 0 (at node 0)
Average injected flit rate = 0.00692552
Maximum injected flit rate = 0.0206 (at node 112)
Minimum accepted flit rate = 0 (at node 0)
Average accepted flit rate = 0.00692118
Maximum accepted flit rate = 0.0152 (at node 78)
Total number of injected packets = 39891
Total number of injected flits = 39891
Average injected packet length = 1
Total number of accepted packets = 39866
Total number of accepted flits = 39866
Average accepted packet length = 1
Total in-flight flits = 623 (623 measured)
class 0 latency change    = 0.0901091
class 0 throughput change = 0.00012542
Draining remaining packets ...
Class 0:
Remaining flits: 42349 42483 42499 43068 43083 43116 43174 43377 43468 43542 [...] (28 flits)
Measured flits: 42349 42483 42499 43068 43083 43116 43174 43377 43468 43542 [...] (28 flits)
Time taken is 51299 cycles
====== Traffic class 0 ======

Total number of flits generated = 44825, changed lanes = 0
Overall minimum packet latency = 62 (1 samples)
Overall average packet latency = 7298 (1 samples)
Overall maximum packet latency = 30832 (1 samples)
Overall minimum network latency = 63 (1 samples)
Overall average network latency = 624.667 (1 samples)
Overall maximum network latency = 4281 (1 samples)
Overall minimum flit latency = 63 (1 samples)
Overall average flit latency = 629.011 (1 samples)
Overall maximum flit latency = 4514 (1 samples)
Overall minimum fragmentation = 0 (1 samples)
Overall average fragmentation = 0 (1 samples)
Overall maximum fragmentation = 0 (1 samples)
Overall minimum injected packet rate = 0 (1 samples)
Overall average injected packet rate = 0.00692552 (1 samples)
Overall maximum injected packet rate = 0.0206 (1 samples)
Overall minimum accepted packet rate = 0 (1 samples)
Overall average accepted packet rate = 0.00692118 (1 samples)
Overall maximum accepted packet rate = 0.0152 (1 samples)
Overall minimum injected flit rate = 0 (1 samples)
Overall average injected flit rate = 0.00692552 (1 samples)
Overall maximum injected flit rate = 0.0206 (1 samples)
Overall minimum accepted flit rate = 0 (1 samples)
Overall average accepted flit rate = 0.00692118 (1 samples)
Overall maximum accepted flit rate = 0.0152 (1 samples)
Overall average injected packet size = 1 (1 samples)
Overall average accepted packet size = 1 (1 samples)
Overall average hops = 7.5982 (1 samples)
Overall throughput of the network (flits/cycle) = 0.996111
Overall throughput of the network (packets/cycle) = 0.996111
CSV Result Header , avgFLat,avgFInjRate
CSV Result ,629.011,0.00692552

Power Report Header, Frequency, Time, StaticIQ, DynamicIQ, StaticVC, DynamicVC, StaticSA, DynamicSA, StaticST, DynamicST, StaticLink, DynamicLink, NoFlits, ePerFlit
Power Report,3.9e+08,51299,0.131875,0.0230787,0.00749762,0.000675215,0.00224928,0.000603027,0.477597,0.00764022,0.0905466,0.0159328,44825,2.22538e-09

*****************************************
Total run time 23.3432
generate:0x7fffb849da10
delete:0x7fffb849da10
L = 2 K = 8.1 M = 2 N = 1
-----------------------------------------
- OCN Power Summary
- Completion Time:         51299
- Flit Widths:            64
- Channel Wire Power:      2.14639
- Channel Clock Power:     1.46183
- Channel Retiming Power:  0.0266677
- Channel Leakage Power:   0.551082
- Input Read Power:        0.0668226
- Input Write Power:       0.0668226
- Input Leakage Power:     0.113246
- Switch Power:            0.144694
- Switch Control Power:    0.0750237
- Switch Leakage Power:    0.771052
- Output DFF Power:        0.0155743
- Output Clk Power:        0.727126
- Output Control Power:    0.00803761
- Total Power:             6.17437
-----------------------------------------

-----------------------------------------
- OCN Area Summary
- Channel Area:  0.109536
- Switch  Area:  0.241592
- Input  Area:   0.120796
- Output  Area:  0.0201327
- Total Area:    0.492056
-----------------------------------------
CSV Power Result Header , Completion Time, Channel Wire, Channel Clock, Channel Retiming, Channel Leakage, Input Read, Input Write, Input Leakage, Switch Power, Switch Control, Switch Leakage, Output DFF, Output Clk, Output Control
CSV Power Result , 51299, 2.14639, 1.46183, 0.0266677, 0.551082, 0.0668226, 0.0668226, 0.113246, 0.144694, 0.0750237, 0.771052, 0.0155743, 0.727126, 0.00803761
delete:0x7fffb849da10
delete:0x7fffb849da10
delete:0x7fffb849da10
delete:0x7fffb849da10
delete:0x7fffb849da10
delete:0x7fffb849da10
