generate:0x7ffd813a1190
generate:0x7ffd813a1248
generate:0x7ffd813a1300
generate:0x7ffd813a13b8
generate:0x7ffd813a1470
generate:0x7ffd813a15e0
BEGIN Configuration File: interposer5
//topology
topology = mesh;
k = 8;
n = 2;
type = interposer;
// Routing
routing_function = dor;

// Flow control
num_vcs     = 2;
vc_buf_size = 8;
wait_for_tail_credit = 1;
hold_switch_for_packet = 1;

// Router architecture
vc_allocator = islip;
sw_allocator = islip;
alloc_iters  = 1;

credit_delay   = 0;
routing_delay  = 1;
vc_alloc_delay = 1;
sw_alloc_delay = 1;
st_final_delay = 1;

input_speedup     = 1;
output_speedup    = 1;
internal_speedup  = 1.0;
vc_busy_when_full = 0;


//granulaity
latency_thres=20000.0;
deadlock_warn_timeout=20000;
traceStretch=3;

//gating
doGating=0;
sleepThreshold=40;
breakEvenThreshold=80;



//Syn Traffic
//sim_type=latency;
//traffic=uniform;
//packet_size = 1;
//sample_period=2500;
//warmup_periods=1;
//max_samples=10;
//injection_rate=0.0001;

sim_type = workload;
traffic=uniform;

workload=netrace({/home/yuri/Documents/blackscholes_64c_simsmall.tra.bz2,100000000,1,2,1,1,0);
//packet_size = 1;
sample_period=25000;
warmup_periods=1;
max_samples=12;
//injection_rate=0.0001;

creditDelays=creditDelays({0,0,0,0,0,0,0,0,0,0,0,0,0,0,0,0,0,0,0,0,0,0,0,0,0,0,0,0,0,0,0,0,0,0,0,0,0,0,0,0,0,0,0,0,0,0,0,0,0,0,0,0,0,0,0,0,0,0,0,0,0,0,0,0}});
routingDelays=routingDelays({15,15,15,15,15,15,15,15,15,15,15,15,15,15,15,15,15,15,15,15,15,15,15,15,15,15,15,15,15,15,15,15,15,15,15,15,15,15,15,15,15,15,15,15,15,15,15,15,15,15,15,15,15,15,15,15,15,15,15,15,15,15,15,15});
vcAllocDelays=vcAllocDelays({15,15,15,15,15,15,15,15,15,15,15,15,15,15,15,15,15,15,15,15,15,15,15,15,15,15,15,15,15,15,15,15,15,15,15,15,15,15,15,15,15,15,15,15,15,15,15,15,15,15,15,15,15,15,15,15,15,15,15,15,15,15,15,15});
swAllocDelays=swAllocDelays({15,15,15,15,15,15,15,15,15,15,15,15,15,15,15,15,15,15,15,15,15,15,15,15,15,15,15,15,15,15,15,15,15,15,15,15,15,15,15,15,15,15,15,15,15,15,15,15,15,15,15,15,15,15,15,15,15,15,15,15,15,15,15,15});
stFinalDelays=stFinalDelays({15,15,15,15,15,15,15,15,15,15,15,15,15,15,15,15,15,15,15,15,15,15,15,15,15,15,15,15,15,15,15,15,15,15,15,15,15,15,15,15,15,15,15,15,15,15,15,15,15,15,15,15,15,15,15,15,15,15,15,15,15,15,15,15});

isAsync=isAsync({0,0,0,0,0,0,0,0,0,0,0,0,0,0,0,0,0,0,0,0,0,0,0,0,0,0,0,0,0,0,0,0,0,0,0,0,0,0,0,0,0,0,0,0,0,0,0,0,0,0,0,0,0,0,0,0,0,0,0,0,0,0,0,0});
isMetaUnstable=isMetaUnstable({0,0,0,0,0,0,0,0,0,0,0,0,0,0,0,0,0,0,0,0,0,0,0,0,0,0,0,0,0,0,0,0,0,0,0,0,0,0,0,0,0,0,0,0,0,0,0,0,0,0,0,0,0,0,0,0,0,0,0,0,0,0,0,0});

creditDelayStdDevs=creditDelayStdDevs({0,0,0,0,0,0,0,0,0,0,0,0,0,0,0,0,0,0,0,0,0,0,0,0,0,0,0,0,0,0,0,0,0,0,0,0,0,0,0,0,0,0,0,0,0,0,0,0,0,0,0,0,0,0,0,0,0,0,0,0,0,0,0,0});
routingDelayStdDevs=routingDelayStdDevs({0,0,0,0,0,0,0,0,0,0,0,0,0,0,0,0,0,0,0,0,0,0,0,0,0,0,0,0,0,0,0,0,0,0,0,0,0,0,0,0,0,0,0,0,0,0,0,0,0,0,0,0,0,0,0,0,0,0,0,0,0,0,0,0});
vcAllocDelayStdDevs=vcAllocDelayStdDevs({0,0,0,0,0,0,0,0,0,0,0,0,0,0,0,0,0,0,0,0,0,0,0,0,0,0,0,0,0,0,0,0,0,0,0,0,0,0,0,0,0,0,0,0,0,0,0,0,0,0,0,0,0,0,0,0,0,0,0,0,0,0,0,0});
swAllocDelayStdDevs=swAllocDelayStdDevs({0,0,0,0,0,0,0,0,0,0,0,0,0,0,0,0,0,0,0,0,0,0,0,0,0,0,0,0,0,0,0,0,0,0,0,0,0,0,0,0,0,0,0,0,0,0,0,0,0,0,0,0,0,0,0,0,0,0,0,0,0,0,0,0});
stFinalDelayStdDevs=stFinalDelayStdDevs({0,0,0,0,0,0,0,0,0,0,0,0,0,0,0,0,0,0,0,0,0,0,0,0,0,0,0,0,0,0,0,0,0,0,0,0,0,0,0,0,0,0,0,0,0,0,0,0,0,0,0,0,0,0,0,0,0,0,0,0,0,0,0,0});

  
swAllocThresholds=swAllocThresholds({1,1,1,1,1,1,1,1,1,1,1,1,1,1,1,1,1,1,1,1,1,1,1,1,1,1,1,1,1,1,1,1,1,1,1,1,1,1,1,1,1,1,1,1,1,1,1,1,1,1,1,1,1,1,1,1,1,1,1,1,1,1,1,1});
swAllocThresholdStdDevs=swAllocThresholdStdDevs({0,0,0,0,0,0,0,0,0,0,0,0,0,0,0,0,0,0,0,0,0,0,0,0,0,0,0,0,0,0,0,0,0,0,0,0,0,0,0,0,0,0,0,0,0,0,0,0,0,0,0,0,0,0,0,0,0,0,0,0,0,0,0,0});
swAllocMetaStableThresholds=swAllocMetaStableThresholds({1,1,1,1,1,1,1,1,1,1,1,1,1,1,1,1,1,1,1,1,1,1,1,1,1,1,1,1,1,1,1,1,1,1,1,1,1,1,1,1,1,1,1,1,1,1,1,1,1,1,1,1,1,1,1,1,1,1,1,1,1,1,1,1});
swAllocMetaStableMaxPenalities=swAllocMetaStableMaxPenalities({0,0,0,0,0,0,0,0,0,0,0,0,0,0,0,0,0,0,0,0,0,0,0,0,0,0,0,0,0,0,0,0,0,0,0,0,0,0,0,0,0,0,0,0,0,0,0,0,0,0,0,0,0,0,0,0,0,0,0,0,0,0,0,0});

END Configuration File: interposer5
BEGIN Configuration File: chip1_1
//topology
topology = mesh;
k = 4;
n = 2;
type = chip;
start_point = 0;
cnum=1;
// Routing
routing_function = dor;

// Flow control
num_vcs     = 2;
vc_buf_size = 8;
wait_for_tail_credit = 1;
hold_switch_for_packet = 1;

// Router architecture
vc_allocator = islip;
sw_allocator = islip;
alloc_iters  = 1;

credit_delay   = 1;
routing_delay  = 1;
vc_alloc_delay = 1;
sw_alloc_delay = 1;
st_final_delay = 1;

input_speedup     = 1;
output_speedup    = 1;
internal_speedup  = 1.0;
vc_busy_when_full = 0;


//granulaity
latency_thres=20000.0;
deadlock_warn_timeout=20000;
traceStretch=3;

//gating
doGating=0;
sleepThreshold=40;
breakEvenThreshold=80;



//Syn Traffic
sim_type=latency;
traffic=uniform;
packet_size = 1;
sample_period=50000;
warmup_periods=1;
max_samples=12;
injection_rate=0.01;

//creditDelays=creditDelays({0,0,0,0,0,0,0,0,0,0,0,0,0,0,0,0});
//routingDelays=routingDelays({1,1,1,1,1,1,1,1,1,1,1,1,1,1,1,1});
//vcAllocDelays=vcAllocDelays({1,1,1,1,1,1,1,1,1,1,1,1,1,1,1,1});
//swAllocDelays=swAllocDelays({1,1,1,1,1,1,1,1,1,1,1,1,1,1,1,1});
//stFinalDelays=stFinalDelays({1,1,1,1,1,1,1,1,1,1,1,1,1,1,1,1});
//channelDelays=channelDelays({1,1,1,1,1,1,1,1,1,1,1,1,1,1,1,1});

creditDelays=creditDelays({0,0,0,0,0,0,0,0,0,0,0,0,0,0,0,0,0,0,0,0,0,0,0,0,0,0,0,0,0,0,0,0,0,0,0,0,0,0,0,0,0,0,0,0,0,0,0,0,0,0,0,0,0,0,0,0,0,0,0,0,0,0,0,0}});
routingDelays=routingDelays({15,15,15,15,15,15,15,15,15,15,15,15,15,15,15,15,15,15,15,15,15,15,15,15,15,15,15,15,15,15,15,15,15,15,15,15,15,15,15,15,15,15,15,15,15,15,15,15,15,15,15,15,15,15,15,15,15,15,15,15,15,15,15,15});
vcAllocDelays=vcAllocDelays({15,15,15,15,15,15,15,15,15,15,15,15,15,15,15,15,15,15,15,15,15,15,15,15,15,15,15,15,15,15,15,15,15,15,15,15,15,15,15,15,15,15,15,15,15,15,15,15,15,15,15,15,15,15,15,15,15,15,15,15,15,15,15,15});
swAllocDelays=swAllocDelays({15,15,15,15,15,15,15,15,15,15,15,15,15,15,15,15,15,15,15,15,15,15,15,15,15,15,15,15,15,15,15,15,15,15,15,15,15,15,15,15,15,15,15,15,15,15,15,15,15,15,15,15,15,15,15,15,15,15,15,15,15,15,15,15});
stFinalDelays=stFinalDelays({15,15,15,15,15,15,15,15,15,15,15,15,15,15,15,15,15,15,15,15,15,15,15,15,15,15,15,15,15,15,15,15,15,15,15,15,15,15,15,15,15,15,15,15,15,15,15,15,15,15,15,15,15,15,15,15,15,15,15,15,15,15,15,15});


isAsync=isAsync({1,1,1,1,1,1,1,1,1,1,1,1,1,1,1,1});
isMetaUnstable=isMetaUnstable({0,0,0,0,0,0,0,0,0,0,0,0,0,0,0,0});

creditDelayStdDevs=creditDelayStdDevs({0,0,0,0,0,0,0,0,0,0,0,0,0,0,0,0});
routingDelayStdDevs=routingDelayStdDevs({0,0,0,0,0,0,0,0,0,0,0,0,0,0,0,0});
vcAllocDelayStdDevs=vcAllocDelayStdDevs({0,0,0,0,0,0,0,0,0,0,0,0,0,0,0,0});
swAllocDelayStdDevs=swAllocDelayStdDevs({0,0,0,0,0,0,0,0,0,0,0,0,0,0,0,0});
stFinalDelayStdDevs=stFinalDelayStdDevs({0,0,0,0,0,0,0,0,0,0,0,0,0,0,0,0});

  
swAllocThresholds=swAllocThresholds({1,1,1,1,1,1,1,1,1,1,1,1,1,1,1,1});
swAllocThresholdStdDevs=swAllocThresholdStdDevs({0,0,0,0,0,0,0,0,0,0,0,0,0,0,0,0});
swAllocMetaStableThresholds=swAllocMetaStableThresholds({1,1,1,1,1,1,1,1,1,1,1,1,1,1,1,1});
swAllocMetaStableMaxPenalities=swAllocMetaStableMaxPenalities({0,0,0,0,0,0,0,0,0,0,0,0,0,0,0,0});

END Configuration File: chip1_1
BEGIN Configuration File: chip2_1
//topology
topology = mesh;
k = 4;
n = 2;
type = chip;
//start_point = 2;
start_point = 4;
cnum = 2;
// Routing
routing_function = dor;

// Flow control
num_vcs     = 2;
vc_buf_size = 8;
wait_for_tail_credit = 1;
hold_switch_for_packet = 1;

// Router architecture
vc_allocator = islip;
sw_allocator = islip;
alloc_iters  = 1;

credit_delay   = 1;
routing_delay  = 1;
vc_alloc_delay = 1;
sw_alloc_delay = 1;
st_final_delay = 1;

input_speedup     = 1;
output_speedup    = 1;
internal_speedup  = 1.0;
vc_busy_when_full = 0;


//granulaity
latency_thres=20000.0;
deadlock_warn_timeout=20000;
traceStretch=3;

//gating
doGating=0;
sleepThreshold=40;
breakEvenThreshold=80;



//Syn Traffic
sim_type=latency;
traffic=uniform;
packet_size = 1;
sample_period=50000;
warmup_periods=3;
max_samples=14;
injection_rate=0.01;

creditDelays=creditDelays({0,0,0,0,0,0,0,0,0,0,0,0,0,0,0,0,0,0,0,0,0,0,0,0,0,0,0,0,0,0,0,0,0,0,0,0,0,0,0,0,0,0,0,0,0,0,0,0,0,0,0,0,0,0,0,0,0,0,0,0,0,0,0,0}});
routingDelays=routingDelays({15,15,15,15,15,15,15,15,15,15,15,15,15,15,15,15,15,15,15,15,15,15,15,15,15,15,15,15,15,15,15,15,15,15,15,15,15,15,15,15,15,15,15,15,15,15,15,15,15,15,15,15,15,15,15,15,15,15,15,15,15,15,15,15});
vcAllocDelays=vcAllocDelays({15,15,15,15,15,15,15,15,15,15,15,15,15,15,15,15,15,15,15,15,15,15,15,15,15,15,15,15,15,15,15,15,15,15,15,15,15,15,15,15,15,15,15,15,15,15,15,15,15,15,15,15,15,15,15,15,15,15,15,15,15,15,15,15});
swAllocDelays=swAllocDelays({15,15,15,15,15,15,15,15,15,15,15,15,15,15,15,15,15,15,15,15,15,15,15,15,15,15,15,15,15,15,15,15,15,15,15,15,15,15,15,15,15,15,15,15,15,15,15,15,15,15,15,15,15,15,15,15,15,15,15,15,15,15,15,15});
stFinalDelays=stFinalDelays({15,15,15,15,15,15,15,15,15,15,15,15,15,15,15,15,15,15,15,15,15,15,15,15,15,15,15,15,15,15,15,15,15,15,15,15,15,15,15,15,15,15,15,15,15,15,15,15,15,15,15,15,15,15,15,15,15,15,15,15,15,15,15,15});


isAsync=isAsync({1,1,1,1,1,1,1,1,1,1,1,1,1,1,1,1});
isMetaUnstable=isMetaUnstable({0,0,0,0,0,0,0,0,0,0,0,0,0,0,0,0});

creditDelayStdDevs=creditDelayStdDevs({0,0,0,0,0,0,0,0,0,0,0,0,0,0,0,0});
routingDelayStdDevs=routingDelayStdDevs({0,0,0,0,0,0,0,0,0,0,0,0,0,0,0,0});
vcAllocDelayStdDevs=vcAllocDelayStdDevs({0,0,0,0,0,0,0,0,0,0,0,0,0,0,0,0});
swAllocDelayStdDevs=swAllocDelayStdDevs({0,0,0,0,0,0,0,0,0,0,0,0,0,0,0,0});
stFinalDelayStdDevs=stFinalDelayStdDevs({0,0,0,0,0,0,0,0,0,0,0,0,0,0,0,0});

  
swAllocThresholds=swAllocThresholds({1,1,1,1,1,1,1,1,1,1,1,1,1,1,1,1});
swAllocThresholdStdDevs=swAllocThresholdStdDevs({0,0,0,0,0,0,0,0,0,0,0,0,0,0,0,0});
swAllocMetaStableThresholds=swAllocMetaStableThresholds({1,1,1,1,1,1,1,1,1,1,1,1,1,1,1,1});
swAllocMetaStableMaxPenalities=swAllocMetaStableMaxPenalities({0,0,0,0,0,0,0,0,0,0,0,0,0,0,0,0});

END Configuration File: chip2_1
BEGIN Configuration File: chip3_1
//topology
topology = mesh;
k = 4;
n = 2;
type = chip;
//start_point = 8;
start_point = 32;
cnum = 3;
// Routing
routing_function = dor;

// Flow control
num_vcs     = 2;
vc_buf_size = 8;
wait_for_tail_credit = 1;
hold_switch_for_packet = 1;

// Router architecture
vc_allocator = islip;
sw_allocator = islip;
alloc_iters  = 1;

credit_delay   = 1;
routing_delay  = 1;
vc_alloc_delay = 1;
sw_alloc_delay = 1;
st_final_delay = 1;

input_speedup     = 1;
output_speedup    = 1;
internal_speedup  = 1.0;
vc_busy_when_full = 0;


//granulaity
latency_thres=20000.0;
deadlock_warn_timeout=20000;
traceStretch=3;

//gating
doGating=0;
sleepThreshold=40;
breakEvenThreshold=80;



//Syn Traffic
sim_type=latency;
traffic=uniform;
packet_size = 1;
sample_period=50000;
warmup_periods=3;
max_samples=14;
injection_rate=0.01;

creditDelays=creditDelays({0,0,0,0,0,0,0,0,0,0,0,0,0,0,0,0,0,0,0,0,0,0,0,0,0,0,0,0,0,0,0,0,0,0,0,0,0,0,0,0,0,0,0,0,0,0,0,0,0,0,0,0,0,0,0,0,0,0,0,0,0,0,0,0}});
routingDelays=routingDelays({15,15,15,15,15,15,15,15,15,15,15,15,15,15,15,15,15,15,15,15,15,15,15,15,15,15,15,15,15,15,15,15,15,15,15,15,15,15,15,15,15,15,15,15,15,15,15,15,15,15,15,15,15,15,15,15,15,15,15,15,15,15,15,15});
vcAllocDelays=vcAllocDelays({15,15,15,15,15,15,15,15,15,15,15,15,15,15,15,15,15,15,15,15,15,15,15,15,15,15,15,15,15,15,15,15,15,15,15,15,15,15,15,15,15,15,15,15,15,15,15,15,15,15,15,15,15,15,15,15,15,15,15,15,15,15,15,15});
swAllocDelays=swAllocDelays({15,15,15,15,15,15,15,15,15,15,15,15,15,15,15,15,15,15,15,15,15,15,15,15,15,15,15,15,15,15,15,15,15,15,15,15,15,15,15,15,15,15,15,15,15,15,15,15,15,15,15,15,15,15,15,15,15,15,15,15,15,15,15,15});
stFinalDelays=stFinalDelays({15,15,15,15,15,15,15,15,15,15,15,15,15,15,15,15,15,15,15,15,15,15,15,15,15,15,15,15,15,15,15,15,15,15,15,15,15,15,15,15,15,15,15,15,15,15,15,15,15,15,15,15,15,15,15,15,15,15,15,15,15,15,15,15});


isAsync=isAsync({1,1,1,1,1,1,1,1,1,1,1,1,1,1,1,1});
isMetaUnstable=isMetaUnstable({0,0,0,0,0,0,0,0,0,0,0,0,0,0,0,0});

creditDelayStdDevs=creditDelayStdDevs({0,0,0,0,0,0,0,0,0,0,0,0,0,0,0,0});
routingDelayStdDevs=routingDelayStdDevs({0,0,0,0,0,0,0,0,0,0,0,0,0,0,0,0});
vcAllocDelayStdDevs=vcAllocDelayStdDevs({0,0,0,0,0,0,0,0,0,0,0,0,0,0,0,0});
swAllocDelayStdDevs=swAllocDelayStdDevs({0,0,0,0,0,0,0,0,0,0,0,0,0,0,0,0});
stFinalDelayStdDevs=stFinalDelayStdDevs({0,0,0,0,0,0,0,0,0,0,0,0,0,0,0,0});

  
swAllocThresholds=swAllocThresholds({1,1,1,1,1,1,1,1,1,1,1,1,1,1,1,1});
swAllocThresholdStdDevs=swAllocThresholdStdDevs({0,0,0,0,0,0,0,0,0,0,0,0,0,0,0,0});
swAllocMetaStableThresholds=swAllocMetaStableThresholds({1,1,1,1,1,1,1,1,1,1,1,1,1,1,1,1});
swAllocMetaStableMaxPenalities=swAllocMetaStableMaxPenalities({0,0,0,0,0,0,0,0,0,0,0,0,0,0,0,0});

END Configuration File: chip3_1
BEGIN Configuration File: chip4_1
//topology
topology = mesh;
k = 4;
n = 2;
type = chip;
//start_point = 10;
start_point = 36;
cnum = 4;
// Routing
routing_function = dor;

// Flow control
num_vcs     = 2;
vc_buf_size = 8;
wait_for_tail_credit = 1;
hold_switch_for_packet = 1;

// Router architecture
vc_allocator = islip;
sw_allocator = islip;
alloc_iters  = 1;

credit_delay   = 1;
routing_delay  = 1;
vc_alloc_delay = 1;
sw_alloc_delay = 1;
st_final_delay = 1;

input_speedup     = 1;
output_speedup    = 1;
internal_speedup  = 1.0;
vc_busy_when_full = 0;


//granulaity
latency_thres=20000.0;
deadlock_warn_timeout=20000;
traceStretch=3;

//gating
doGating=0;
sleepThreshold=40;
breakEvenThreshold=80;



//Syn Traffic
sim_type=latency;
traffic=uniform;
packet_size = 1;
sample_period=50000;
warmup_periods=3;
max_samples=14;
injection_rate=0.01;

creditDelays=creditDelays({0,0,0,0,0,0,0,0,0,0,0,0,0,0,0,0,0,0,0,0,0,0,0,0,0,0,0,0,0,0,0,0,0,0,0,0,0,0,0,0,0,0,0,0,0,0,0,0,0,0,0,0,0,0,0,0,0,0,0,0,0,0,0,0}});
routingDelays=routingDelays({15,15,15,15,15,15,15,15,15,15,15,15,15,15,15,15,15,15,15,15,15,15,15,15,15,15,15,15,15,15,15,15,15,15,15,15,15,15,15,15,15,15,15,15,15,15,15,15,15,15,15,15,15,15,15,15,15,15,15,15,15,15,15,15});
vcAllocDelays=vcAllocDelays({15,15,15,15,15,15,15,15,15,15,15,15,15,15,15,15,15,15,15,15,15,15,15,15,15,15,15,15,15,15,15,15,15,15,15,15,15,15,15,15,15,15,15,15,15,15,15,15,15,15,15,15,15,15,15,15,15,15,15,15,15,15,15,15});
swAllocDelays=swAllocDelays({15,15,15,15,15,15,15,15,15,15,15,15,15,15,15,15,15,15,15,15,15,15,15,15,15,15,15,15,15,15,15,15,15,15,15,15,15,15,15,15,15,15,15,15,15,15,15,15,15,15,15,15,15,15,15,15,15,15,15,15,15,15,15,15});
stFinalDelays=stFinalDelays({15,15,15,15,15,15,15,15,15,15,15,15,15,15,15,15,15,15,15,15,15,15,15,15,15,15,15,15,15,15,15,15,15,15,15,15,15,15,15,15,15,15,15,15,15,15,15,15,15,15,15,15,15,15,15,15,15,15,15,15,15,15,15,15});


isAsync=isAsync({1,1,1,1,1,1,1,1,1,1,1,1,1,1,1,1});
isMetaUnstable=isMetaUnstable({0,0,0,0,0,0,0,0,0,0,0,0,0,0,0,0});

creditDelayStdDevs=creditDelayStdDevs({0,0,0,0,0,0,0,0,0,0,0,0,0,0,0,0});
routingDelayStdDevs=routingDelayStdDevs({0,0,0,0,0,0,0,0,0,0,0,0,0,0,0,0});
vcAllocDelayStdDevs=vcAllocDelayStdDevs({0,0,0,0,0,0,0,0,0,0,0,0,0,0,0,0});
swAllocDelayStdDevs=swAllocDelayStdDevs({0,0,0,0,0,0,0,0,0,0,0,0,0,0,0,0});
stFinalDelayStdDevs=stFinalDelayStdDevs({0,0,0,0,0,0,0,0,0,0,0,0,0,0,0,0});

  
swAllocThresholds=swAllocThresholds({1,1,1,1,1,1,1,1,1,1,1,1,1,1,1,1});
swAllocThresholdStdDevs=swAllocThresholdStdDevs({0,0,0,0,0,0,0,0,0,0,0,0,0,0,0,0});
swAllocMetaStableThresholds=swAllocMetaStableThresholds({1,1,1,1,1,1,1,1,1,1,1,1,1,1,1,1});
swAllocMetaStableMaxPenalities=swAllocMetaStableMaxPenalities({0,0,0,0,0,0,0,0,0,0,0,0,0,0,0,0});

END Configuration File: chip4_1
rid:0 add output _25chan1
rid:0 add input _25chan0
rid:1 add output _25chan3
rid:1 add input _25chan2
rid:2 add output _25chan5
rid:2 add input _25chan4
rid:3 add output _25chan7
rid:3 add input _25chan6
rid:4 add output _25chan33
rid:4 add input _25chan32
rid:5 add output _25chan35
rid:5 add input _25chan34
rid:6 add output _25chan37
rid:6 add input _25chan36
rid:7 add output _25chan39
rid:7 add input _25chan38
rid:8 add output _25chan9
rid:8 add input _25chan8
rid:9 add output _25chan11
rid:9 add input _25chan10
rid:10 add output _25chan13
rid:10 add input _25chan12
rid:11 add output _25chan15
rid:11 add input _25chan14
rid:12 add output _25chan41
rid:12 add input _25chan40
rid:13 add output _25chan43
rid:13 add input _25chan42
rid:14 add output _25chan45
rid:14 add input _25chan44
rid:15 add output _25chan47
rid:15 add input _25chan46
rid:16 add output _25chan17
rid:16 add input _25chan16
rid:17 add output _25chan19
rid:17 add input _25chan18
rid:18 add output _25chan21
rid:18 add input _25chan20
rid:19 add output _25chan23
rid:19 add input _25chan22
rid:20 add output _25chan49
rid:20 add input _25chan48
rid:21 add output _25chan51
rid:21 add input _25chan50
rid:22 add output _25chan53
rid:22 add input _25chan52
rid:23 add output _25chan55
rid:23 add input _25chan54
rid:24 add output _25chan25
rid:24 add input _25chan24
rid:25 add output _25chan27
rid:25 add input _25chan26
rid:26 add output _25chan29
rid:26 add input _25chan28
rid:27 add output _25chan31
rid:27 add input _25chan30
rid:28 add output _25chan57
rid:28 add input _25chan56
rid:29 add output _25chan59
rid:29 add input _25chan58
rid:30 add output _25chan61
rid:30 add input _25chan60
rid:31 add output _25chan63
rid:31 add input _25chan62
rid:32 add output _25chan65
rid:32 add input _25chan64
rid:33 add output _25chan67
rid:33 add input _25chan66
rid:34 add output _25chan69
rid:34 add input _25chan68
rid:35 add output _25chan71
rid:35 add input _25chan70
rid:36 add output _25chan97
rid:36 add input _25chan96
rid:37 add output _25chan99
rid:37 add input _25chan98
rid:38 add output _25chan101
rid:38 add input _25chan100
rid:39 add output _25chan103
rid:39 add input _25chan102
rid:40 add output _25chan73
rid:40 add input _25chan72
rid:41 add output _25chan75
rid:41 add input _25chan74
rid:42 add output _25chan77
rid:42 add input _25chan76
rid:43 add output _25chan79
rid:43 add input _25chan78
rid:44 add output _25chan105
rid:44 add input _25chan104
rid:45 add output _25chan107
rid:45 add input _25chan106
rid:46 add output _25chan109
rid:46 add input _25chan108
rid:47 add output _25chan111
rid:47 add input _25chan110
rid:48 add output _25chan81
rid:48 add input _25chan80
rid:49 add output _25chan83
rid:49 add input _25chan82
rid:50 add output _25chan85
rid:50 add input _25chan84
rid:51 add output _25chan87
rid:51 add input _25chan86
rid:52 add output _25chan113
rid:52 add input _25chan112
rid:53 add output _25chan115
rid:53 add input _25chan114
rid:54 add output _25chan117
rid:54 add input _25chan116
rid:55 add output _25chan119
rid:55 add input _25chan118
rid:56 add output _25chan89
rid:56 add input _25chan88
rid:57 add output _25chan91
rid:57 add input _25chan90
rid:58 add output _25chan93
rid:58 add input _25chan92
rid:59 add output _25chan95
rid:59 add input _25chan94
rid:60 add output _25chan121
rid:60 add input _25chan120
rid:61 add output _25chan123
rid:61 add input _25chan122
rid:62 add output _25chan125
rid:62 add input _25chan124
rid:63 add output _25chan127
rid:63 add input _25chan126
rid:0 add output _25chan0
rid:0 add input _25chan1
rid:1 add output _25chan2
rid:1 add input _25chan3
rid:2 add output _25chan4
rid:2 add input _25chan5
rid:3 add output _25chan6
rid:3 add input _25chan7
rid:4 add output _25chan8
rid:4 add input _25chan9
rid:5 add output _25chan10
rid:5 add input _25chan11
rid:6 add output _25chan12
rid:6 add input _25chan13
rid:7 add output _25chan14
rid:7 add input _25chan15
rid:8 add output _25chan16
rid:8 add input _25chan17
rid:9 add output _25chan18
rid:9 add input _25chan19
rid:10 add output _25chan20
rid:10 add input _25chan21
rid:11 add output _25chan22
rid:11 add input _25chan23
rid:12 add output _25chan24
rid:12 add input _25chan25
rid:13 add output _25chan26
rid:13 add input _25chan27
rid:14 add output _25chan28
rid:14 add input _25chan29
rid:15 add output _25chan30
rid:15 add input _25chan31
rid:0 add output _25chan32
rid:0 add input _25chan33
rid:1 add output _25chan34
rid:1 add input _25chan35
rid:2 add output _25chan36
rid:2 add input _25chan37
rid:3 add output _25chan38
rid:3 add input _25chan39
rid:4 add output _25chan40
rid:4 add input _25chan41
rid:5 add output _25chan42
rid:5 add input _25chan43
rid:6 add output _25chan44
rid:6 add input _25chan45
rid:7 add output _25chan46
rid:7 add input _25chan47
rid:8 add output _25chan48
rid:8 add input _25chan49
rid:9 add output _25chan50
rid:9 add input _25chan51
rid:10 add output _25chan52
rid:10 add input _25chan53
rid:11 add output _25chan54
rid:11 add input _25chan55
rid:12 add output _25chan56
rid:12 add input _25chan57
rid:13 add output _25chan58
rid:13 add input _25chan59
rid:14 add output _25chan60
rid:14 add input _25chan61
rid:15 add output _25chan62
rid:15 add input _25chan63
rid:0 add output _25chan64
rid:0 add input _25chan65
rid:1 add output _25chan66
rid:1 add input _25chan67
rid:2 add output _25chan68
rid:2 add input _25chan69
rid:3 add output _25chan70
rid:3 add input _25chan71
rid:4 add output _25chan72
rid:4 add input _25chan73
rid:5 add output _25chan74
rid:5 add input _25chan75
rid:6 add output _25chan76
rid:6 add input _25chan77
rid:7 add output _25chan78
rid:7 add input _25chan79
rid:8 add output _25chan80
rid:8 add input _25chan81
rid:9 add output _25chan82
rid:9 add input _25chan83
rid:10 add output _25chan84
rid:10 add input _25chan85
rid:11 add output _25chan86
rid:11 add input _25chan87
rid:12 add output _25chan88
rid:12 add input _25chan89
rid:13 add output _25chan90
rid:13 add input _25chan91
rid:14 add output _25chan92
rid:14 add input _25chan93
rid:15 add output _25chan94
rid:15 add input _25chan95
rid:0 add output _25chan96
rid:0 add input _25chan97
rid:1 add output _25chan98
rid:1 add input _25chan99
rid:2 add output _25chan100
rid:2 add input _25chan101
rid:3 add output _25chan102
rid:3 add input _25chan103
rid:4 add output _25chan104
rid:4 add input _25chan105
rid:5 add output _25chan106
rid:5 add input _25chan107
rid:6 add output _25chan108
rid:6 add input _25chan109
rid:7 add output _25chan110
rid:7 add input _25chan111
rid:8 add output _25chan112
rid:8 add input _25chan113
rid:9 add output _25chan114
rid:9 add input _25chan115
rid:10 add output _25chan116
rid:10 add input _25chan117
rid:11 add output _25chan118
rid:11 add input _25chan119
rid:12 add output _25chan120
rid:12 add input _25chan121
rid:13 add output _25chan122
rid:13 add input _25chan123
rid:14 add output _25chan124
rid:14 add input _25chan125
rid:15 add output _25chan126
rid:15 add input _25chan127
Warming up...

Tick: 0M
===== Time: 25000 =====
Class 0:
Packets read from trace = 138 of 4889823 (0%)
Future packets = 1
Waiting packets = 0
Stalled packets = 106
Packets pending injection = 0
Packets in flight = 1
Minimum packet latency = 299
Average packet latency = 450.833
Maximum packet latency = 729
Minimum network latency = 299
Average network latency = 447.367
Maximum network latency = 726
Slowest packet = 16
Minimum flit latency = 246
Average flit latency = 434.462
Maximum flit latency = 687
Slowest flit = 81
Minimum fragmentation = 0
Average fragmentation = 24
Maximum fragmentation = 45
Minimum injected packet rate = 0 (at node 0)
Average injected packet rate = 9.6875e-06
Maximum injected packet rate = 0.00064 (at node 66)
Minimum accepted packet rate = 0 (at node 0)
Average accepted packet rate = 9.375e-06
Maximum accepted packet rate = 0.00052 (at node 66)
Minimum injected flit rate = 0 (at node 0)
Average injected flit rate = 5.21875e-05
Maximum injected flit rate = 0.00144 (at node 80)
Minimum accepted flit rate = 0 (at node 0)
Average accepted flit rate = 4.9375e-05
Maximum accepted flit rate = 0.00468 (at node 66)
Total number of injected packets = 31
Total number of injected flits = 167
Average injected packet length = 5.3871
Total number of accepted packets = 30
Total number of accepted flits = 158
Average accepted packet length = 5.26667
Total in-flight flits = 9 (0 measured)
Warmup ends after 25000 cycles.
Beginning measurements...
===== Time: 50000 =====
Class 0:
Packets read from trace = 294 of 4889823 (0%)
Future packets = 1
Waiting packets = 0
Stalled packets = 201
Packets pending injection = 0
Packets in flight = 1
Minimum packet latency = 185
Average packet latency = 497.517
Maximum packet latency = 790
Minimum network latency = 185
Average network latency = 495.117
Maximum network latency = 787
Slowest packet = 60
Minimum flit latency = 185
Average flit latency = 472.922
Maximum flit latency = 748
Slowest flit = 317
Minimum fragmentation = 0
Average fragmentation = 24.9167
Maximum fragmentation = 52
Minimum injected packet rate = 0 (at node 0)
Average injected packet rate = 1.90625e-05
Maximum injected packet rate = 0.00104 (at node 66)
Minimum accepted packet rate = 0 (at node 0)
Average accepted packet rate = 1.90625e-05
Maximum accepted packet rate = 0.00092 (at node 66)
Minimum injected flit rate = 0 (at node 0)
Average injected flit rate = 0.000101562
Maximum injected flit rate = 0.00216 (at node 120)
Minimum accepted flit rate = 0 (at node 0)
Average accepted flit rate = 0.000104063
Maximum accepted flit rate = 0.00732 (at node 66)
Total number of injected packets = 61
Total number of injected flits = 325
Average injected packet length = 5.32787
Total number of accepted packets = 61
Total number of accepted flits = 333
Average accepted packet length = 5.45902
Total in-flight flits = 1 (1 measured)
===== Time: 75000 =====
Class 0:
Packets read from trace = 450 of 4889823 (0%)
Future packets = 1
Waiting packets = 0
Stalled packets = 309
Packets pending injection = 0
Packets in flight = 1
Minimum packet latency = 185
Average packet latency = 541.87
Maximum packet latency = 970
Minimum network latency = 185
Average network latency = 539.5
Maximum network latency = 970
Slowest packet = 104
Minimum flit latency = 185
Average flit latency = 519.967
Maximum flit latency = 931
Slowest flit = 545
Minimum fragmentation = 0
Average fragmentation = 26.0185
Maximum fragmentation = 52
Minimum injected packet rate = 0 (at node 0)
Average injected packet rate = 1.70313e-05
Maximum injected packet rate = 0.0009 (at node 66)
Minimum accepted packet rate = 0 (at node 0)
Average accepted packet rate = 1.70313e-05
Maximum accepted packet rate = 0.0008 (at node 66)
Minimum injected flit rate = 0 (at node 0)
Average injected flit rate = 9.45312e-05
Maximum injected flit rate = 0.00198 (at node 120)
Minimum accepted flit rate = 0 (at node 0)
Average accepted flit rate = 9.57813e-05
Maximum accepted flit rate = 0.00672 (at node 66)
Total number of injected packets = 109
Total number of injected flits = 605
Average injected packet length = 5.55046
Total number of accepted packets = 109
Total number of accepted flits = 613
Average accepted packet length = 5.62385
Total in-flight flits = 1 (1 measured)
===== Time: 100000 =====
Class 0:
Packets read from trace = 608 of 4889823 (0%)
Future packets = 1
Waiting packets = 0
Stalled packets = 412
Packets pending injection = 0
Packets in flight = 1
Minimum packet latency = 185
Average packet latency = 540.313
Maximum packet latency = 970
Minimum network latency = 185
Average network latency = 538.601
Maximum network latency = 970
Slowest packet = 104
Minimum flit latency = 185
Average flit latency = 496.682
Maximum flit latency = 931
Slowest flit = 545
Minimum fragmentation = 0
Average fragmentation = 26.362
Maximum fragmentation = 52
Minimum injected packet rate = 0 (at node 0)
Average injected packet rate = 1.70833e-05
Maximum injected packet rate = 0.0008 (at node 66)
Minimum accepted packet rate = 0 (at node 0)
Average accepted packet rate = 1.70833e-05
Maximum accepted packet rate = 0.00072 (at node 66)
Minimum injected flit rate = 0 (at node 0)
Average injected flit rate = 9.625e-05
Maximum injected flit rate = 0.0018 (at node 123)
Minimum accepted flit rate = 0 (at node 0)
Average accepted flit rate = 9.70833e-05
Maximum accepted flit rate = 0.00594667 (at node 66)
Total number of injected packets = 164
Total number of injected flits = 924
Average injected packet length = 5.63415
Total number of accepted packets = 164
Total number of accepted flits = 932
Average accepted packet length = 5.68293
Total in-flight flits = 1 (1 measured)
===== Time: 125000 =====
Class 0:
Packets read from trace = 760 of 4889823 (0%)
Future packets = 1
Waiting packets = 0
Stalled packets = 513
Packets pending injection = 0
Packets in flight = 1
Minimum packet latency = 185
Average packet latency = 550.533
Maximum packet latency = 970
Minimum network latency = 185
Average network latency = 548.935
Maximum network latency = 970
Slowest packet = 104
Minimum flit latency = 185
Average flit latency = 501.31
Maximum flit latency = 931
Slowest flit = 545
Minimum fragmentation = 0
Average fragmentation = 27.2336
Maximum fragmentation = 52
Minimum injected packet rate = 0 (at node 0)
Average injected packet rate = 1.67969e-05
Maximum injected packet rate = 0.0007 (at node 66)
Minimum accepted packet rate = 0 (at node 0)
Average accepted packet rate = 1.67969e-05
Maximum accepted packet rate = 0.00062 (at node 66)
Minimum injected flit rate = 0 (at node 0)
Average injected flit rate = 9.80469e-05
Maximum injected flit rate = 0.00225 (at node 123)
Minimum accepted flit rate = 0 (at node 0)
Average accepted flit rate = 9.80469e-05
Maximum accepted flit rate = 0.00518 (at node 66)
Total number of injected packets = 215
Total number of injected flits = 1255
Average injected packet length = 5.83721
Total number of accepted packets = 215
Total number of accepted flits = 1255
Average accepted packet length = 5.83721
Total in-flight flits = 9 (9 measured)
===== Time: 150000 =====
Class 0:
Packets read from trace = 899 of 4889823 (0%)
Future packets = 1
Waiting packets = 1
Stalled packets = 615
Packets pending injection = 0
Packets in flight = 0
Minimum packet latency = 185
Average packet latency = 566
Maximum packet latency = 970
Minimum network latency = 185
Average network latency = 564.008
Maximum network latency = 970
Slowest packet = 104
Minimum flit latency = 185
Average flit latency = 517.633
Maximum flit latency = 931
Slowest flit = 545
Minimum fragmentation = 0
Average fragmentation = 27.012
Maximum fragmentation = 52
Minimum injected packet rate = 0 (at node 0)
Average injected packet rate = 1.56875e-05
Maximum injected packet rate = 0.000648 (at node 66)
Minimum accepted packet rate = 0 (at node 0)
Average accepted packet rate = 1.575e-05
Maximum accepted packet rate = 0.00056 (at node 66)
Minimum injected flit rate = 0 (at node 0)
Average injected flit rate = 9.06875e-05
Maximum injected flit rate = 0.002072 (at node 122)
Minimum accepted flit rate = 0 (at node 0)
Average accepted flit rate = 9.125e-05
Maximum accepted flit rate = 0.00472 (at node 66)
Total number of injected packets = 251
Total number of injected flits = 1451
Average injected packet length = 5.78088
Total number of accepted packets = 252
Total number of accepted flits = 1460
Average accepted packet length = 5.79365
Total in-flight flits = 0 (0 measured)
===== Time: 175000 =====
Class 0:
Packets read from trace = 960 of 4889823 (0%)
Future packets = 1
Waiting packets = 0
Stalled packets = 641
Packets pending injection = 0
Packets in flight = 1
Minimum packet latency = 185
Average packet latency = 579.958
Maximum packet latency = 970
Minimum network latency = 185
Average network latency = 577.483
Maximum network latency = 970
Slowest packet = 104
Minimum flit latency = 185
Average flit latency = 533.028
Maximum flit latency = 931
Slowest flit = 545
Minimum fragmentation = 0
Average fragmentation = 26.8531
Maximum fragmentation = 52
Minimum injected packet rate = 0 (at node 0)
Average injected packet rate = 1.49479e-05
Maximum injected packet rate = 0.00062 (at node 66)
Minimum accepted packet rate = 0 (at node 0)
Average accepted packet rate = 1.49479e-05
Maximum accepted packet rate = 0.00052 (at node 66)
Minimum injected flit rate = 0 (at node 0)
Average injected flit rate = 8.57813e-05
Maximum injected flit rate = 0.00226 (at node 122)
Minimum accepted flit rate = 0 (at node 0)
Average accepted flit rate = 8.61979e-05
Maximum accepted flit rate = 0.00441333 (at node 66)
Total number of injected packets = 287
Total number of injected flits = 1647
Average injected packet length = 5.73868
Total number of accepted packets = 287
Total number of accepted flits = 1655
Average accepted packet length = 5.76655
Total in-flight flits = 1 (1 measured)
===== Time: 200000 =====
Class 0:
Packets read from trace = 964 of 4889823 (0%)
Future packets = 1
Waiting packets = 0
Stalled packets = 608
Packets pending injection = 0
Packets in flight = 2
Minimum packet latency = 185
Average packet latency = 590.888
Maximum packet latency = 970
Minimum network latency = 185
Average network latency = 587.891
Maximum network latency = 970
Slowest packet = 104
Minimum flit latency = 185
Average flit latency = 546.281
Maximum flit latency = 931
Slowest flit = 545
Minimum fragmentation = 0
Average fragmentation = 26.7857
Maximum fragmentation = 52
Minimum injected packet rate = 0 (at node 0)
Average injected packet rate = 1.44643e-05
Maximum injected packet rate = 0.000611429 (at node 66)
Minimum accepted packet rate = 0 (at node 0)
Average accepted packet rate = 1.44196e-05
Maximum accepted packet rate = 0.000491429 (at node 66)
Minimum injected flit rate = 0 (at node 0)
Average injected flit rate = 8.30357e-05
Maximum injected flit rate = 0.00238857 (at node 122)
Minimum accepted flit rate = 0 (at node 0)
Average accepted flit rate = 8.29911e-05
Maximum accepted flit rate = 0.00419429 (at node 66)
Total number of injected packets = 324
Total number of injected flits = 1860
Average injected packet length = 5.74074
Total number of accepted packets = 323
Total number of accepted flits = 1859
Average accepted packet length = 5.75542
Total in-flight flits = 10 (10 measured)
===== Time: 225000 =====
Class 0:
Packets read from trace = 1081 of 4889823 (0%)
Future packets = 1
Waiting packets = 0
Stalled packets = 685
Packets pending injection = 0
Packets in flight = 2
Minimum packet latency = 185
Average packet latency = 601.304
Maximum packet latency = 970
Minimum network latency = 185
Average network latency = 598.064
Maximum network latency = 970
Slowest packet = 104
Minimum flit latency = 185
Average flit latency = 559.993
Maximum flit latency = 931
Slowest flit = 545
Minimum fragmentation = 0
Average fragmentation = 26.8122
Maximum fragmentation = 52
Minimum injected packet rate = 0 (at node 0)
Average injected packet rate = 1.42188e-05
Maximum injected packet rate = 0.000585 (at node 66)
Minimum accepted packet rate = 0 (at node 0)
Average accepted packet rate = 1.41797e-05
Maximum accepted packet rate = 0.00047 (at node 66)
Minimum injected flit rate = 0 (at node 0)
Average injected flit rate = 8.20313e-05
Maximum injected flit rate = 0.00249 (at node 122)
Minimum accepted flit rate = 0 (at node 0)
Average accepted flit rate = 8.19922e-05
Maximum accepted flit rate = 0.00407 (at node 66)
Total number of injected packets = 364
Total number of injected flits = 2100
Average injected packet length = 5.76923
Total number of accepted packets = 363
Total number of accepted flits = 2099
Average accepted packet length = 5.78237
Total in-flight flits = 10 (10 measured)
===== Time: 250000 =====
Class 0:
Packets read from trace = 1324 of 4889823 (0%)
Future packets = 1
Waiting packets = 0
Stalled packets = 885
Packets pending injection = 0
Packets in flight = 2
Minimum packet latency = 185
Average packet latency = 605.286
Maximum packet latency = 970
Minimum network latency = 185
Average network latency = 601.63
Maximum network latency = 970
Slowest packet = 104
Minimum flit latency = 185
Average flit latency = 562.079
Maximum flit latency = 931
Slowest flit = 545
Minimum fragmentation = 0
Average fragmentation = 26.9654
Maximum fragmentation = 52
Minimum injected packet rate = 0 (at node 0)
Average injected packet rate = 1.41319e-05
Maximum injected packet rate = 0.000582222 (at node 66)
Minimum accepted packet rate = 0 (at node 0)
Average accepted packet rate = 1.40972e-05
Maximum accepted packet rate = 0.000457778 (at node 66)
Minimum injected flit rate = 0 (at node 0)
Average injected flit rate = 8.19097e-05
Maximum injected flit rate = 0.00256889 (at node 122)
Minimum accepted flit rate = 0 (at node 0)
Average accepted flit rate = 8.15972e-05
Maximum accepted flit rate = 0.00394222 (at node 66)
Total number of injected packets = 407
Total number of injected flits = 2359
Average injected packet length = 5.79607
Total number of accepted packets = 406
Total number of accepted flits = 2350
Average accepted packet length = 5.78818
Total in-flight flits = 18 (18 measured)
===== Time: 275000 =====
Class 0:
Packets read from trace = 1536 of 4889823 (0%)
Future packets = 1
Waiting packets = 0
Stalled packets = 1054
Packets pending injection = 0
Packets in flight = 1
Minimum packet latency = 185
Average packet latency = 607.851
Maximum packet latency = 970
Minimum network latency = 185
Average network latency = 604.089
Maximum network latency = 970
Slowest packet = 104
Minimum flit latency = 185
Average flit latency = 563.871
Maximum flit latency = 931
Slowest flit = 545
Minimum fragmentation = 0
Average fragmentation = 27.1292
Maximum fragmentation = 52
Minimum injected packet rate = 0 (at node 0)
Average injected packet rate = 1.40625e-05
Maximum injected packet rate = 0.000572 (at node 66)
Minimum accepted packet rate = 0 (at node 0)
Average accepted packet rate = 1.40625e-05
Maximum accepted packet rate = 0.000448 (at node 66)
Minimum injected flit rate = 0 (at node 0)
Average injected flit rate = 8.18125e-05
Maximum injected flit rate = 0.002596 (at node 122)
Minimum accepted flit rate = 0 (at node 0)
Average accepted flit rate = 8.18125e-05
Maximum accepted flit rate = 0.003872 (at node 66)
Total number of injected packets = 450
Total number of injected flits = 2618
Average injected packet length = 5.81778
Total number of accepted packets = 450
Total number of accepted flits = 2618
Average accepted packet length = 5.81778
Total in-flight flits = 9 (9 measured)
===== Time: 300000 =====
Class 0:
Packets read from trace = 1683 of 4889823 (0%)
Future packets = 1
Waiting packets = 1
Stalled packets = 1160
Packets pending injection = 0
Packets in flight = 0
Minimum packet latency = 185
Average packet latency = 611.663
Maximum packet latency = 970
Minimum network latency = 185
Average network latency = 607.792
Maximum network latency = 970
Slowest packet = 104
Minimum flit latency = 185
Average flit latency = 567.945
Maximum flit latency = 931
Slowest flit = 545
Minimum fragmentation = 0
Average fragmentation = 27.1469
Maximum fragmentation = 52
Minimum injected packet rate = 0 (at node 0)
Average injected packet rate = 1.39205e-05
Maximum injected packet rate = 0.000563636 (at node 66)
Minimum accepted packet rate = 0 (at node 0)
Average accepted packet rate = 1.39489e-05
Maximum accepted packet rate = 0.000454545 (at node 122)
Minimum injected flit rate = 0 (at node 0)
Average injected flit rate = 8.09659e-05
Maximum injected flit rate = 0.00265091 (at node 122)
Minimum accepted flit rate = 0 (at node 0)
Average accepted flit rate = 8.12216e-05
Maximum accepted flit rate = 0.00378182 (at node 66)
Total number of injected packets = 490
Total number of injected flits = 2850
Average injected packet length = 5.81633
Total number of accepted packets = 491
Total number of accepted flits = 2859
Average accepted packet length = 5.82281
Total in-flight flits = 0 (0 measured)
===== Time: 325000 =====
Class 0:
Packets read from trace = 1854 of 4889823 (0%)
Future packets = 1
Waiting packets = 0
Stalled packets = 1291
Packets pending injection = 0
Packets in flight = 2
Minimum packet latency = 185
Average packet latency = 610.639
Maximum packet latency = 970
Minimum network latency = 185
Average network latency = 606.739
Maximum network latency = 970
Slowest packet = 104
Minimum flit latency = 185
Average flit latency = 568.263
Maximum flit latency = 931
Slowest flit = 545
Minimum fragmentation = 0
Average fragmentation = 27.1021
Maximum fragmentation = 52
Minimum injected packet rate = 0 (at node 0)
Average injected packet rate = 1.38281e-05
Maximum injected packet rate = 0.00056 (at node 66)
Minimum accepted packet rate = 0 (at node 0)
Average accepted packet rate = 1.38021e-05
Maximum accepted packet rate = 0.00043 (at node 66)
Minimum injected flit rate = 0 (at node 0)
Average injected flit rate = 8.02865e-05
Maximum injected flit rate = 0.00249333 (at node 122)
Minimum accepted flit rate = 0 (at node 0)
Average accepted flit rate = 8.02604e-05
Maximum accepted flit rate = 0.00373667 (at node 66)
Total number of injected packets = 531
Total number of injected flits = 3083
Average injected packet length = 5.80603
Total number of accepted packets = 530
Total number of accepted flits = 3082
Average accepted packet length = 5.81509
Total in-flight flits = 10 (10 measured)
Completed measurements after 325000 cycles.
Draining remaining packets ...
Time taken is 325308 cycles
====== Traffic class 0 ======

Total number of flits generated = 3250, changed lanes = 0
Overall minimum packet latency = 185 (1 samples)
Overall average packet latency = 611.54 (1 samples)
Overall maximum packet latency = 970 (1 samples)
Overall minimum network latency = 185 (1 samples)
Overall average network latency = 607.556 (1 samples)
Overall maximum network latency = 970 (1 samples)
Overall minimum flit latency = 185 (1 samples)
Overall average flit latency = 568.873 (1 samples)
Overall maximum flit latency = 931 (1 samples)
Overall minimum fragmentation = 0 (1 samples)
Overall average fragmentation = 27.0847 (1 samples)
Overall maximum fragmentation = 52 (1 samples)
Overall minimum injected packet rate = 0 (1 samples)
Overall average injected packet rate = 1.38281e-05 (1 samples)
Overall maximum injected packet rate = 0.00056 (1 samples)
Overall minimum accepted packet rate = 0 (1 samples)
Overall average accepted packet rate = 1.38021e-05 (1 samples)
Overall maximum accepted packet rate = 0.00043 (1 samples)
Overall minimum injected flit rate = 0 (1 samples)
Overall average injected flit rate = 8.02865e-05 (1 samples)
Overall maximum injected flit rate = 0.00249333 (1 samples)
Overall minimum accepted flit rate = 0 (1 samples)
Overall average accepted flit rate = 8.02604e-05 (1 samples)
Overall maximum accepted flit rate = 0.00373667 (1 samples)
Overall average injected packet size = 5.80603 (1 samples)
Overall average accepted packet size = 5.81509 (1 samples)
Overall average hops = 9.39548 (1 samples)
Overall throughput of the network (flits/cycle) = 0.0108333
Overall throughput of the network (packets/cycle) = 0.00187333
CSV Result Header , avgFLat,avgFInjRate
CSV Result ,568.873,1.38281e-05
Overall workload runtime = 300000 (1 samples)

The distribution of the source packets of size 1 is: 

Source [0] = 0
Source [1] = 0
Source [2] = 140
Source [3] = 0
Source [4] = 0
Source [5] = 0
Source [6] = 0
Source [7] = 0
Source [8] = 0
Source [9] = 0
Source [10] = 0
Source [11] = 0
Source [12] = 0
Source [13] = 0
Source [14] = 0
Source [15] = 2
Source [16] = 0
Source [17] = 0
Source [18] = 0
Source [19] = 0
Source [20] = 0
Source [21] = 0
Source [22] = 0
Source [23] = 0
Source [24] = 0
Source [25] = 0
Source [26] = 0
Source [27] = 0
Source [28] = 0
Source [29] = 0
Source [30] = 0
Source [31] = 0
Source [32] = 2
Source [33] = 0
Source [34] = 0
Source [35] = 0
Source [36] = 0
Source [37] = 0
Source [38] = 0
Source [39] = 0
Source [40] = 3
Source [41] = 0
Source [42] = 0
Source [43] = 0
Source [44] = 0
Source [45] = 0
Source [46] = 0
Source [47] = 0
Source [48] = 0
Source [49] = 0
Source [50] = 0
Source [51] = 0
Source [52] = 5
Source [53] = 0
Source [54] = 64
Source [55] = 7
Source [56] = 0
Source [57] = 0
Source [58] = 0
Source [59] = 0
Source [60] = 0
Source [61] = 2
Source [62] = 0
Source [63] = 1
The distribution of the source packets of size 9 is: 

Source [0] = 0
Source [1] = 0
Source [2] = 44
Source [3] = 0
Source [4] = 4
Source [5] = 2
Source [6] = 4
Source [7] = 0
Source [8] = 3
Source [9] = 0
Source [10] = 1
Source [11] = 4
Source [12] = 0
Source [13] = 2
Source [14] = 1
Source [15] = 1
Source [16] = 2
Source [17] = 0
Source [18] = 0
Source [19] = 0
Source [20] = 4
Source [21] = 0
Source [22] = 3
Source [23] = 0
Source [24] = 1
Source [25] = 1
Source [26] = 1
Source [27] = 0
Source [28] = 2
Source [29] = 2
Source [30] = 0
Source [31] = 1
Source [32] = 2
Source [33] = 0
Source [34] = 0
Source [35] = 0
Source [36] = 0
Source [37] = 0
Source [38] = 0
Source [39] = 0
Source [40] = 0
Source [41] = 0
Source [42] = 5
Source [43] = 3
Source [44] = 0
Source [45] = 0
Source [46] = 0
Source [47] = 0
Source [48] = 0
Source [49] = 0
Source [50] = 2
Source [51] = 7
Source [52] = 14
Source [53] = 23
Source [54] = 76
Source [55] = 36
Source [56] = 0
Source [57] = 0
Source [58] = 71
Source [59] = 6
Source [60] = 0
Source [61] = 7
Source [62] = 0
Source [63] = 1
The distribution of the dest packets of size 1 is: 

dest [0] = 0
dest [1] = 0
dest [2] = 5
dest [3] = 0
dest [4] = 4
dest [5] = 2
dest [6] = 0
dest [7] = 0
dest [8] = 0
dest [9] = 0
dest [10] = 0
dest [11] = 4
dest [12] = 0
dest [13] = 2
dest [14] = 1
dest [15] = 3
dest [16] = 2
dest [17] = 0
dest [18] = 0
dest [19] = 0
dest [20] = 4
dest [21] = 0
dest [22] = 3
dest [23] = 0
dest [24] = 1
dest [25] = 0
dest [26] = 1
dest [27] = 0
dest [28] = 2
dest [29] = 2
dest [30] = 0
dest [31] = 1
dest [32] = 4
dest [33] = 0
dest [34] = 0
dest [35] = 0
dest [36] = 0
dest [37] = 0
dest [38] = 0
dest [39] = 0
dest [40] = 3
dest [41] = 0
dest [42] = 5
dest [43] = 3
dest [44] = 0
dest [45] = 0
dest [46] = 0
dest [47] = 0
dest [48] = 0
dest [49] = 0
dest [50] = 1
dest [51] = 0
dest [52] = 8
dest [53] = 3
dest [54] = 64
dest [55] = 10
dest [56] = 0
dest [57] = 0
dest [58] = 71
dest [59] = 6
dest [60] = 0
dest [61] = 9
dest [62] = 0
dest [63] = 2
The distribution of the dest packets of size 9 is: 

dest [0] = 0
dest [1] = 0
dest [2] = 137
dest [3] = 0
dest [4] = 0
dest [5] = 1
dest [6] = 0
dest [7] = 0
dest [8] = 0
dest [9] = 1
dest [10] = 0
dest [11] = 0
dest [12] = 0
dest [13] = 0
dest [14] = 0
dest [15] = 1
dest [16] = 2
dest [17] = 0
dest [18] = 0
dest [19] = 0
dest [20] = 0
dest [21] = 0
dest [22] = 0
dest [23] = 7
dest [24] = 0
dest [25] = 0
dest [26] = 0
dest [27] = 0
dest [28] = 0
dest [29] = 0
dest [30] = 0
dest [31] = 0
dest [32] = 0
dest [33] = 0
dest [34] = 0
dest [35] = 0
dest [36] = 0
dest [37] = 0
dest [38] = 0
dest [39] = 0
dest [40] = 11
dest [41] = 0
dest [42] = 0
dest [43] = 0
dest [44] = 0
dest [45] = 0
dest [46] = 0
dest [47] = 20
dest [48] = 0
dest [49] = 0
dest [50] = 9
dest [51] = 0
dest [52] = 28
dest [53] = 5
dest [54] = 64
dest [55] = 7
dest [56] = 0
dest [57] = 0
dest [58] = 16
dest [59] = 0
dest [60] = 0
dest [61] = 27
dest [62] = 0
dest [63] = 0
Power Report Header, Frequency, Time, StaticIQ, DynamicIQ, StaticVC, DynamicVC, StaticSA, DynamicSA, StaticST, DynamicST, StaticLink, DynamicLink, NoFlits, ePerFlit
Power Report,3.9e+08,325308,0.131875,0.000334128,0.00749762,1.83039e-06,0.00224928,2.08878e-06,0.477597,9.55324e-05,0.0905466,0.000236529,3250,1.82336e-07

*****************************************
Total run time 58.3246
generate:0x7ffd813a0c00
delete:0x7ffd813a0c00
L = 2 K = 8.1 M = 2 N = 1
-----------------------------------------
- OCN Power Summary
- Completion Time:         325308
- Flit Widths:            64
- Channel Wire Power:      0.0318641
- Channel Clock Power:     1.46183
- Channel Retiming Power:  0.000395894
- Channel Leakage Power:   0.551082
- Input Read Power:        0.000967441
- Input Write Power:       0.000967441
- Input Leakage Power:     0.113246
- Switch Power:            0.00215397
- Switch Control Power:    0.00108617
- Switch Leakage Power:    0.771052
- Output DFF Power:        0.00022548
- Output Clk Power:        0.727126
- Output Control Power:    0.000116366
- Total Power:             3.66211
-----------------------------------------

-----------------------------------------
- OCN Area Summary
- Channel Area:  0.109536
- Switch  Area:  0.241592
- Input  Area:   0.120796
- Output  Area:  0.0201327
- Total Area:    0.492056
-----------------------------------------
CSV Power Result Header , Completion Time, Channel Wire, Channel Clock, Channel Retiming, Channel Leakage, Input Read, Input Write, Input Leakage, Switch Power, Switch Control, Switch Leakage, Output DFF, Output Clk, Output Control
CSV Power Result , 325308, 0.0318641, 1.46183, 0.000395894, 0.551082, 0.000967441, 0.000967441, 0.113246, 0.00215397, 0.00108617, 0.771052, 0.00022548, 0.727126, 0.000116366
delete:0x7ffd813a0c00
delete:0x7ffd813a0c00
delete:0x7ffd813a0c00
delete:0x7ffd813a0c00
delete:0x7ffd813a0c00
delete:0x7ffd813a0c00
