generate:0x7ffda0d93b00
generate:0x7ffda0d93bb8
generate:0x7ffda0d93c70
generate:0x7ffda0d93d28
generate:0x7ffda0d93de0
generate:0x7ffda0d93f50
BEGIN Configuration File: interposer5
//topology
topology = mesh;
k = 8;
n = 2;
type = interposer;
// Routing
routing_function = dor;

// Flow control
num_vcs     = 2;
vc_buf_size = 8;
wait_for_tail_credit = 1;
hold_switch_for_packet = 1;

// Router architecture
vc_allocator = islip;
sw_allocator = islip;
alloc_iters  = 1;

credit_delay   = 0;
routing_delay  = 1;
vc_alloc_delay = 1;
sw_alloc_delay = 1;
st_final_delay = 1;

input_speedup     = 1;
output_speedup    = 1;
internal_speedup  = 1.0;
vc_busy_when_full = 0;


//granulaity
latency_thres=20000.0;
deadlock_warn_timeout=20000;
traceStretch=3;

//gating
doGating=0;
sleepThreshold=40;
breakEvenThreshold=80;



//Syn Traffic
//sim_type=latency;
//traffic=uniform;
//packet_size = 1;
//sample_period=2500;
//warmup_periods=1;
//max_samples=10;
//injection_rate=0.0001;

sim_type = workload;
traffic=uniform;

workload=netrace({/home/yuri/Documents/fluidanimate_64c_simmedium.tra.bz2,100000000,1,2,1,1,0);
//packet_size = 1;
sample_period=25000;
warmup_periods=1;
max_samples=12;
//injection_rate=0.0001;

creditDelays=creditDelays({0,0,0,0,0,0,0,0,0,0,0,0,0,0,0,0,0,0,0,0,0,0,0,0,0,0,0,0,0,0,0,0,0,0,0,0,0,0,0,0,0,0,0,0,0,0,0,0,0,0,0,0,0,0,0,0,0,0,0,0,0,0,0,0}});
routingDelays=routingDelays({15,15,15,15,15,15,15,15,15,15,15,15,15,15,15,15,15,15,15,15,15,15,15,15,15,15,15,15,15,15,15,15,15,15,15,15,15,15,15,15,15,15,15,15,15,15,15,15,15,15,15,15,15,15,15,15,15,15,15,15,15,15,15,15});
vcAllocDelays=vcAllocDelays({15,15,15,15,15,15,15,15,15,15,15,15,15,15,15,15,15,15,15,15,15,15,15,15,15,15,15,15,15,15,15,15,15,15,15,15,15,15,15,15,15,15,15,15,15,15,15,15,15,15,15,15,15,15,15,15,15,15,15,15,15,15,15,15});
swAllocDelays=swAllocDelays({15,15,15,15,15,15,15,15,15,15,15,15,15,15,15,15,15,15,15,15,15,15,15,15,15,15,15,15,15,15,15,15,15,15,15,15,15,15,15,15,15,15,15,15,15,15,15,15,15,15,15,15,15,15,15,15,15,15,15,15,15,15,15,15});
stFinalDelays=stFinalDelays({15,15,15,15,15,15,15,15,15,15,15,15,15,15,15,15,15,15,15,15,15,15,15,15,15,15,15,15,15,15,15,15,15,15,15,15,15,15,15,15,15,15,15,15,15,15,15,15,15,15,15,15,15,15,15,15,15,15,15,15,15,15,15,15});

isAsync=isAsync({0,0,0,0,0,0,0,0,0,0,0,0,0,0,0,0,0,0,0,0,0,0,0,0,0,0,0,0,0,0,0,0,0,0,0,0,0,0,0,0,0,0,0,0,0,0,0,0,0,0,0,0,0,0,0,0,0,0,0,0,0,0,0,0});
isMetaUnstable=isMetaUnstable({0,0,0,0,0,0,0,0,0,0,0,0,0,0,0,0,0,0,0,0,0,0,0,0,0,0,0,0,0,0,0,0,0,0,0,0,0,0,0,0,0,0,0,0,0,0,0,0,0,0,0,0,0,0,0,0,0,0,0,0,0,0,0,0});

creditDelayStdDevs=creditDelayStdDevs({0,0,0,0,0,0,0,0,0,0,0,0,0,0,0,0,0,0,0,0,0,0,0,0,0,0,0,0,0,0,0,0,0,0,0,0,0,0,0,0,0,0,0,0,0,0,0,0,0,0,0,0,0,0,0,0,0,0,0,0,0,0,0,0});
routingDelayStdDevs=routingDelayStdDevs({0,0,0,0,0,0,0,0,0,0,0,0,0,0,0,0,0,0,0,0,0,0,0,0,0,0,0,0,0,0,0,0,0,0,0,0,0,0,0,0,0,0,0,0,0,0,0,0,0,0,0,0,0,0,0,0,0,0,0,0,0,0,0,0});
vcAllocDelayStdDevs=vcAllocDelayStdDevs({0,0,0,0,0,0,0,0,0,0,0,0,0,0,0,0,0,0,0,0,0,0,0,0,0,0,0,0,0,0,0,0,0,0,0,0,0,0,0,0,0,0,0,0,0,0,0,0,0,0,0,0,0,0,0,0,0,0,0,0,0,0,0,0});
swAllocDelayStdDevs=swAllocDelayStdDevs({0,0,0,0,0,0,0,0,0,0,0,0,0,0,0,0,0,0,0,0,0,0,0,0,0,0,0,0,0,0,0,0,0,0,0,0,0,0,0,0,0,0,0,0,0,0,0,0,0,0,0,0,0,0,0,0,0,0,0,0,0,0,0,0});
stFinalDelayStdDevs=stFinalDelayStdDevs({0,0,0,0,0,0,0,0,0,0,0,0,0,0,0,0,0,0,0,0,0,0,0,0,0,0,0,0,0,0,0,0,0,0,0,0,0,0,0,0,0,0,0,0,0,0,0,0,0,0,0,0,0,0,0,0,0,0,0,0,0,0,0,0});

  
swAllocThresholds=swAllocThresholds({1,1,1,1,1,1,1,1,1,1,1,1,1,1,1,1,1,1,1,1,1,1,1,1,1,1,1,1,1,1,1,1,1,1,1,1,1,1,1,1,1,1,1,1,1,1,1,1,1,1,1,1,1,1,1,1,1,1,1,1,1,1,1,1});
swAllocThresholdStdDevs=swAllocThresholdStdDevs({0,0,0,0,0,0,0,0,0,0,0,0,0,0,0,0,0,0,0,0,0,0,0,0,0,0,0,0,0,0,0,0,0,0,0,0,0,0,0,0,0,0,0,0,0,0,0,0,0,0,0,0,0,0,0,0,0,0,0,0,0,0,0,0});
swAllocMetaStableThresholds=swAllocMetaStableThresholds({1,1,1,1,1,1,1,1,1,1,1,1,1,1,1,1,1,1,1,1,1,1,1,1,1,1,1,1,1,1,1,1,1,1,1,1,1,1,1,1,1,1,1,1,1,1,1,1,1,1,1,1,1,1,1,1,1,1,1,1,1,1,1,1});
swAllocMetaStableMaxPenalities=swAllocMetaStableMaxPenalities({0,0,0,0,0,0,0,0,0,0,0,0,0,0,0,0,0,0,0,0,0,0,0,0,0,0,0,0,0,0,0,0,0,0,0,0,0,0,0,0,0,0,0,0,0,0,0,0,0,0,0,0,0,0,0,0,0,0,0,0,0,0,0,0});

END Configuration File: interposer5
BEGIN Configuration File: chip1_1
//topology
topology = mesh;
k = 4;
n = 2;
type = chip;
start_point = 0;
cnum=1;
// Routing
routing_function = dor;

// Flow control
num_vcs     = 2;
vc_buf_size = 8;
wait_for_tail_credit = 1;
hold_switch_for_packet = 1;

// Router architecture
vc_allocator = islip;
sw_allocator = islip;
alloc_iters  = 1;

credit_delay   = 1;
routing_delay  = 1;
vc_alloc_delay = 1;
sw_alloc_delay = 1;
st_final_delay = 1;

input_speedup     = 1;
output_speedup    = 1;
internal_speedup  = 1.0;
vc_busy_when_full = 0;


//granulaity
latency_thres=20000.0;
deadlock_warn_timeout=20000;
traceStretch=3;

//gating
doGating=0;
sleepThreshold=40;
breakEvenThreshold=80;



//Syn Traffic
sim_type=latency;
traffic=uniform;
packet_size = 1;
sample_period=50000;
warmup_periods=1;
max_samples=12;
injection_rate=0.01;

//creditDelays=creditDelays({0,0,0,0,0,0,0,0,0,0,0,0,0,0,0,0});
//routingDelays=routingDelays({1,1,1,1,1,1,1,1,1,1,1,1,1,1,1,1});
//vcAllocDelays=vcAllocDelays({1,1,1,1,1,1,1,1,1,1,1,1,1,1,1,1});
//swAllocDelays=swAllocDelays({1,1,1,1,1,1,1,1,1,1,1,1,1,1,1,1});
//stFinalDelays=stFinalDelays({1,1,1,1,1,1,1,1,1,1,1,1,1,1,1,1});
//channelDelays=channelDelays({1,1,1,1,1,1,1,1,1,1,1,1,1,1,1,1});

creditDelays=creditDelays({0,0,0,0,0,0,0,0,0,0,0,0,0,0,0,0,0,0,0,0,0,0,0,0,0,0,0,0,0,0,0,0,0,0,0,0,0,0,0,0,0,0,0,0,0,0,0,0,0,0,0,0,0,0,0,0,0,0,0,0,0,0,0,0}});
routingDelays=routingDelays({15,15,15,15,15,15,15,15,15,15,15,15,15,15,15,15,15,15,15,15,15,15,15,15,15,15,15,15,15,15,15,15,15,15,15,15,15,15,15,15,15,15,15,15,15,15,15,15,15,15,15,15,15,15,15,15,15,15,15,15,15,15,15,15});
vcAllocDelays=vcAllocDelays({15,15,15,15,15,15,15,15,15,15,15,15,15,15,15,15,15,15,15,15,15,15,15,15,15,15,15,15,15,15,15,15,15,15,15,15,15,15,15,15,15,15,15,15,15,15,15,15,15,15,15,15,15,15,15,15,15,15,15,15,15,15,15,15});
swAllocDelays=swAllocDelays({15,15,15,15,15,15,15,15,15,15,15,15,15,15,15,15,15,15,15,15,15,15,15,15,15,15,15,15,15,15,15,15,15,15,15,15,15,15,15,15,15,15,15,15,15,15,15,15,15,15,15,15,15,15,15,15,15,15,15,15,15,15,15,15});
stFinalDelays=stFinalDelays({15,15,15,15,15,15,15,15,15,15,15,15,15,15,15,15,15,15,15,15,15,15,15,15,15,15,15,15,15,15,15,15,15,15,15,15,15,15,15,15,15,15,15,15,15,15,15,15,15,15,15,15,15,15,15,15,15,15,15,15,15,15,15,15});


isAsync=isAsync({1,1,1,1,1,1,1,1,1,1,1,1,1,1,1,1});
isMetaUnstable=isMetaUnstable({0,0,0,0,0,0,0,0,0,0,0,0,0,0,0,0});

creditDelayStdDevs=creditDelayStdDevs({0,0,0,0,0,0,0,0,0,0,0,0,0,0,0,0});
routingDelayStdDevs=routingDelayStdDevs({0,0,0,0,0,0,0,0,0,0,0,0,0,0,0,0});
vcAllocDelayStdDevs=vcAllocDelayStdDevs({0,0,0,0,0,0,0,0,0,0,0,0,0,0,0,0});
swAllocDelayStdDevs=swAllocDelayStdDevs({0,0,0,0,0,0,0,0,0,0,0,0,0,0,0,0});
stFinalDelayStdDevs=stFinalDelayStdDevs({0,0,0,0,0,0,0,0,0,0,0,0,0,0,0,0});

  
swAllocThresholds=swAllocThresholds({1,1,1,1,1,1,1,1,1,1,1,1,1,1,1,1});
swAllocThresholdStdDevs=swAllocThresholdStdDevs({0,0,0,0,0,0,0,0,0,0,0,0,0,0,0,0});
swAllocMetaStableThresholds=swAllocMetaStableThresholds({1,1,1,1,1,1,1,1,1,1,1,1,1,1,1,1});
swAllocMetaStableMaxPenalities=swAllocMetaStableMaxPenalities({0,0,0,0,0,0,0,0,0,0,0,0,0,0,0,0});

END Configuration File: chip1_1
BEGIN Configuration File: chip2_1
//topology
topology = mesh;
k = 4;
n = 2;
type = chip;
//start_point = 2;
start_point = 4;
cnum = 2;
// Routing
routing_function = dor;

// Flow control
num_vcs     = 2;
vc_buf_size = 8;
wait_for_tail_credit = 1;
hold_switch_for_packet = 1;

// Router architecture
vc_allocator = islip;
sw_allocator = islip;
alloc_iters  = 1;

credit_delay   = 1;
routing_delay  = 1;
vc_alloc_delay = 1;
sw_alloc_delay = 1;
st_final_delay = 1;

input_speedup     = 1;
output_speedup    = 1;
internal_speedup  = 1.0;
vc_busy_when_full = 0;


//granulaity
latency_thres=20000.0;
deadlock_warn_timeout=20000;
traceStretch=3;

//gating
doGating=0;
sleepThreshold=40;
breakEvenThreshold=80;



//Syn Traffic
sim_type=latency;
traffic=uniform;
packet_size = 1;
sample_period=50000;
warmup_periods=3;
max_samples=14;
injection_rate=0.01;

creditDelays=creditDelays({0,0,0,0,0,0,0,0,0,0,0,0,0,0,0,0,0,0,0,0,0,0,0,0,0,0,0,0,0,0,0,0,0,0,0,0,0,0,0,0,0,0,0,0,0,0,0,0,0,0,0,0,0,0,0,0,0,0,0,0,0,0,0,0}});
routingDelays=routingDelays({15,15,15,15,15,15,15,15,15,15,15,15,15,15,15,15,15,15,15,15,15,15,15,15,15,15,15,15,15,15,15,15,15,15,15,15,15,15,15,15,15,15,15,15,15,15,15,15,15,15,15,15,15,15,15,15,15,15,15,15,15,15,15,15});
vcAllocDelays=vcAllocDelays({15,15,15,15,15,15,15,15,15,15,15,15,15,15,15,15,15,15,15,15,15,15,15,15,15,15,15,15,15,15,15,15,15,15,15,15,15,15,15,15,15,15,15,15,15,15,15,15,15,15,15,15,15,15,15,15,15,15,15,15,15,15,15,15});
swAllocDelays=swAllocDelays({15,15,15,15,15,15,15,15,15,15,15,15,15,15,15,15,15,15,15,15,15,15,15,15,15,15,15,15,15,15,15,15,15,15,15,15,15,15,15,15,15,15,15,15,15,15,15,15,15,15,15,15,15,15,15,15,15,15,15,15,15,15,15,15});
stFinalDelays=stFinalDelays({15,15,15,15,15,15,15,15,15,15,15,15,15,15,15,15,15,15,15,15,15,15,15,15,15,15,15,15,15,15,15,15,15,15,15,15,15,15,15,15,15,15,15,15,15,15,15,15,15,15,15,15,15,15,15,15,15,15,15,15,15,15,15,15});


isAsync=isAsync({1,1,1,1,1,1,1,1,1,1,1,1,1,1,1,1});
isMetaUnstable=isMetaUnstable({0,0,0,0,0,0,0,0,0,0,0,0,0,0,0,0});

creditDelayStdDevs=creditDelayStdDevs({0,0,0,0,0,0,0,0,0,0,0,0,0,0,0,0});
routingDelayStdDevs=routingDelayStdDevs({0,0,0,0,0,0,0,0,0,0,0,0,0,0,0,0});
vcAllocDelayStdDevs=vcAllocDelayStdDevs({0,0,0,0,0,0,0,0,0,0,0,0,0,0,0,0});
swAllocDelayStdDevs=swAllocDelayStdDevs({0,0,0,0,0,0,0,0,0,0,0,0,0,0,0,0});
stFinalDelayStdDevs=stFinalDelayStdDevs({0,0,0,0,0,0,0,0,0,0,0,0,0,0,0,0});

  
swAllocThresholds=swAllocThresholds({1,1,1,1,1,1,1,1,1,1,1,1,1,1,1,1});
swAllocThresholdStdDevs=swAllocThresholdStdDevs({0,0,0,0,0,0,0,0,0,0,0,0,0,0,0,0});
swAllocMetaStableThresholds=swAllocMetaStableThresholds({1,1,1,1,1,1,1,1,1,1,1,1,1,1,1,1});
swAllocMetaStableMaxPenalities=swAllocMetaStableMaxPenalities({0,0,0,0,0,0,0,0,0,0,0,0,0,0,0,0});

END Configuration File: chip2_1
BEGIN Configuration File: chip3_1
//topology
topology = mesh;
k = 4;
n = 2;
type = chip;
//start_point = 8;
start_point = 32;
cnum = 3;
// Routing
routing_function = dor;

// Flow control
num_vcs     = 2;
vc_buf_size = 8;
wait_for_tail_credit = 1;
hold_switch_for_packet = 1;

// Router architecture
vc_allocator = islip;
sw_allocator = islip;
alloc_iters  = 1;

credit_delay   = 1;
routing_delay  = 1;
vc_alloc_delay = 1;
sw_alloc_delay = 1;
st_final_delay = 1;

input_speedup     = 1;
output_speedup    = 1;
internal_speedup  = 1.0;
vc_busy_when_full = 0;


//granulaity
latency_thres=20000.0;
deadlock_warn_timeout=20000;
traceStretch=3;

//gating
doGating=0;
sleepThreshold=40;
breakEvenThreshold=80;



//Syn Traffic
sim_type=latency;
traffic=uniform;
packet_size = 1;
sample_period=50000;
warmup_periods=3;
max_samples=14;
injection_rate=0.01;

creditDelays=creditDelays({0,0,0,0,0,0,0,0,0,0,0,0,0,0,0,0,0,0,0,0,0,0,0,0,0,0,0,0,0,0,0,0,0,0,0,0,0,0,0,0,0,0,0,0,0,0,0,0,0,0,0,0,0,0,0,0,0,0,0,0,0,0,0,0}});
routingDelays=routingDelays({15,15,15,15,15,15,15,15,15,15,15,15,15,15,15,15,15,15,15,15,15,15,15,15,15,15,15,15,15,15,15,15,15,15,15,15,15,15,15,15,15,15,15,15,15,15,15,15,15,15,15,15,15,15,15,15,15,15,15,15,15,15,15,15});
vcAllocDelays=vcAllocDelays({15,15,15,15,15,15,15,15,15,15,15,15,15,15,15,15,15,15,15,15,15,15,15,15,15,15,15,15,15,15,15,15,15,15,15,15,15,15,15,15,15,15,15,15,15,15,15,15,15,15,15,15,15,15,15,15,15,15,15,15,15,15,15,15});
swAllocDelays=swAllocDelays({15,15,15,15,15,15,15,15,15,15,15,15,15,15,15,15,15,15,15,15,15,15,15,15,15,15,15,15,15,15,15,15,15,15,15,15,15,15,15,15,15,15,15,15,15,15,15,15,15,15,15,15,15,15,15,15,15,15,15,15,15,15,15,15});
stFinalDelays=stFinalDelays({15,15,15,15,15,15,15,15,15,15,15,15,15,15,15,15,15,15,15,15,15,15,15,15,15,15,15,15,15,15,15,15,15,15,15,15,15,15,15,15,15,15,15,15,15,15,15,15,15,15,15,15,15,15,15,15,15,15,15,15,15,15,15,15});


isAsync=isAsync({1,1,1,1,1,1,1,1,1,1,1,1,1,1,1,1});
isMetaUnstable=isMetaUnstable({0,0,0,0,0,0,0,0,0,0,0,0,0,0,0,0});

creditDelayStdDevs=creditDelayStdDevs({0,0,0,0,0,0,0,0,0,0,0,0,0,0,0,0});
routingDelayStdDevs=routingDelayStdDevs({0,0,0,0,0,0,0,0,0,0,0,0,0,0,0,0});
vcAllocDelayStdDevs=vcAllocDelayStdDevs({0,0,0,0,0,0,0,0,0,0,0,0,0,0,0,0});
swAllocDelayStdDevs=swAllocDelayStdDevs({0,0,0,0,0,0,0,0,0,0,0,0,0,0,0,0});
stFinalDelayStdDevs=stFinalDelayStdDevs({0,0,0,0,0,0,0,0,0,0,0,0,0,0,0,0});

  
swAllocThresholds=swAllocThresholds({1,1,1,1,1,1,1,1,1,1,1,1,1,1,1,1});
swAllocThresholdStdDevs=swAllocThresholdStdDevs({0,0,0,0,0,0,0,0,0,0,0,0,0,0,0,0});
swAllocMetaStableThresholds=swAllocMetaStableThresholds({1,1,1,1,1,1,1,1,1,1,1,1,1,1,1,1});
swAllocMetaStableMaxPenalities=swAllocMetaStableMaxPenalities({0,0,0,0,0,0,0,0,0,0,0,0,0,0,0,0});

END Configuration File: chip3_1
BEGIN Configuration File: chip4_1
//topology
topology = mesh;
k = 4;
n = 2;
type = chip;
//start_point = 10;
start_point = 36;
cnum = 4;
// Routing
routing_function = dor;

// Flow control
num_vcs     = 2;
vc_buf_size = 8;
wait_for_tail_credit = 1;
hold_switch_for_packet = 1;

// Router architecture
vc_allocator = islip;
sw_allocator = islip;
alloc_iters  = 1;

credit_delay   = 1;
routing_delay  = 1;
vc_alloc_delay = 1;
sw_alloc_delay = 1;
st_final_delay = 1;

input_speedup     = 1;
output_speedup    = 1;
internal_speedup  = 1.0;
vc_busy_when_full = 0;


//granulaity
latency_thres=20000.0;
deadlock_warn_timeout=20000;
traceStretch=3;

//gating
doGating=0;
sleepThreshold=40;
breakEvenThreshold=80;



//Syn Traffic
sim_type=latency;
traffic=uniform;
packet_size = 1;
sample_period=50000;
warmup_periods=3;
max_samples=14;
injection_rate=0.01;

creditDelays=creditDelays({0,0,0,0,0,0,0,0,0,0,0,0,0,0,0,0,0,0,0,0,0,0,0,0,0,0,0,0,0,0,0,0,0,0,0,0,0,0,0,0,0,0,0,0,0,0,0,0,0,0,0,0,0,0,0,0,0,0,0,0,0,0,0,0}});
routingDelays=routingDelays({15,15,15,15,15,15,15,15,15,15,15,15,15,15,15,15,15,15,15,15,15,15,15,15,15,15,15,15,15,15,15,15,15,15,15,15,15,15,15,15,15,15,15,15,15,15,15,15,15,15,15,15,15,15,15,15,15,15,15,15,15,15,15,15});
vcAllocDelays=vcAllocDelays({15,15,15,15,15,15,15,15,15,15,15,15,15,15,15,15,15,15,15,15,15,15,15,15,15,15,15,15,15,15,15,15,15,15,15,15,15,15,15,15,15,15,15,15,15,15,15,15,15,15,15,15,15,15,15,15,15,15,15,15,15,15,15,15});
swAllocDelays=swAllocDelays({15,15,15,15,15,15,15,15,15,15,15,15,15,15,15,15,15,15,15,15,15,15,15,15,15,15,15,15,15,15,15,15,15,15,15,15,15,15,15,15,15,15,15,15,15,15,15,15,15,15,15,15,15,15,15,15,15,15,15,15,15,15,15,15});
stFinalDelays=stFinalDelays({15,15,15,15,15,15,15,15,15,15,15,15,15,15,15,15,15,15,15,15,15,15,15,15,15,15,15,15,15,15,15,15,15,15,15,15,15,15,15,15,15,15,15,15,15,15,15,15,15,15,15,15,15,15,15,15,15,15,15,15,15,15,15,15});


isAsync=isAsync({1,1,1,1,1,1,1,1,1,1,1,1,1,1,1,1});
isMetaUnstable=isMetaUnstable({0,0,0,0,0,0,0,0,0,0,0,0,0,0,0,0});

creditDelayStdDevs=creditDelayStdDevs({0,0,0,0,0,0,0,0,0,0,0,0,0,0,0,0});
routingDelayStdDevs=routingDelayStdDevs({0,0,0,0,0,0,0,0,0,0,0,0,0,0,0,0});
vcAllocDelayStdDevs=vcAllocDelayStdDevs({0,0,0,0,0,0,0,0,0,0,0,0,0,0,0,0});
swAllocDelayStdDevs=swAllocDelayStdDevs({0,0,0,0,0,0,0,0,0,0,0,0,0,0,0,0});
stFinalDelayStdDevs=stFinalDelayStdDevs({0,0,0,0,0,0,0,0,0,0,0,0,0,0,0,0});

  
swAllocThresholds=swAllocThresholds({1,1,1,1,1,1,1,1,1,1,1,1,1,1,1,1});
swAllocThresholdStdDevs=swAllocThresholdStdDevs({0,0,0,0,0,0,0,0,0,0,0,0,0,0,0,0});
swAllocMetaStableThresholds=swAllocMetaStableThresholds({1,1,1,1,1,1,1,1,1,1,1,1,1,1,1,1});
swAllocMetaStableMaxPenalities=swAllocMetaStableMaxPenalities({0,0,0,0,0,0,0,0,0,0,0,0,0,0,0,0});

END Configuration File: chip4_1
rid:0 add output _25chan1
rid:0 add input _25chan0
rid:1 add output _25chan3
rid:1 add input _25chan2
rid:2 add output _25chan5
rid:2 add input _25chan4
rid:3 add output _25chan7
rid:3 add input _25chan6
rid:4 add output _25chan33
rid:4 add input _25chan32
rid:5 add output _25chan35
rid:5 add input _25chan34
rid:6 add output _25chan37
rid:6 add input _25chan36
rid:7 add output _25chan39
rid:7 add input _25chan38
rid:8 add output _25chan9
rid:8 add input _25chan8
rid:9 add output _25chan11
rid:9 add input _25chan10
rid:10 add output _25chan13
rid:10 add input _25chan12
rid:11 add output _25chan15
rid:11 add input _25chan14
rid:12 add output _25chan41
rid:12 add input _25chan40
rid:13 add output _25chan43
rid:13 add input _25chan42
rid:14 add output _25chan45
rid:14 add input _25chan44
rid:15 add output _25chan47
rid:15 add input _25chan46
rid:16 add output _25chan17
rid:16 add input _25chan16
rid:17 add output _25chan19
rid:17 add input _25chan18
rid:18 add output _25chan21
rid:18 add input _25chan20
rid:19 add output _25chan23
rid:19 add input _25chan22
rid:20 add output _25chan49
rid:20 add input _25chan48
rid:21 add output _25chan51
rid:21 add input _25chan50
rid:22 add output _25chan53
rid:22 add input _25chan52
rid:23 add output _25chan55
rid:23 add input _25chan54
rid:24 add output _25chan25
rid:24 add input _25chan24
rid:25 add output _25chan27
rid:25 add input _25chan26
rid:26 add output _25chan29
rid:26 add input _25chan28
rid:27 add output _25chan31
rid:27 add input _25chan30
rid:28 add output _25chan57
rid:28 add input _25chan56
rid:29 add output _25chan59
rid:29 add input _25chan58
rid:30 add output _25chan61
rid:30 add input _25chan60
rid:31 add output _25chan63
rid:31 add input _25chan62
rid:32 add output _25chan65
rid:32 add input _25chan64
rid:33 add output _25chan67
rid:33 add input _25chan66
rid:34 add output _25chan69
rid:34 add input _25chan68
rid:35 add output _25chan71
rid:35 add input _25chan70
rid:36 add output _25chan97
rid:36 add input _25chan96
rid:37 add output _25chan99
rid:37 add input _25chan98
rid:38 add output _25chan101
rid:38 add input _25chan100
rid:39 add output _25chan103
rid:39 add input _25chan102
rid:40 add output _25chan73
rid:40 add input _25chan72
rid:41 add output _25chan75
rid:41 add input _25chan74
rid:42 add output _25chan77
rid:42 add input _25chan76
rid:43 add output _25chan79
rid:43 add input _25chan78
rid:44 add output _25chan105
rid:44 add input _25chan104
rid:45 add output _25chan107
rid:45 add input _25chan106
rid:46 add output _25chan109
rid:46 add input _25chan108
rid:47 add output _25chan111
rid:47 add input _25chan110
rid:48 add output _25chan81
rid:48 add input _25chan80
rid:49 add output _25chan83
rid:49 add input _25chan82
rid:50 add output _25chan85
rid:50 add input _25chan84
rid:51 add output _25chan87
rid:51 add input _25chan86
rid:52 add output _25chan113
rid:52 add input _25chan112
rid:53 add output _25chan115
rid:53 add input _25chan114
rid:54 add output _25chan117
rid:54 add input _25chan116
rid:55 add output _25chan119
rid:55 add input _25chan118
rid:56 add output _25chan89
rid:56 add input _25chan88
rid:57 add output _25chan91
rid:57 add input _25chan90
rid:58 add output _25chan93
rid:58 add input _25chan92
rid:59 add output _25chan95
rid:59 add input _25chan94
rid:60 add output _25chan121
rid:60 add input _25chan120
rid:61 add output _25chan123
rid:61 add input _25chan122
rid:62 add output _25chan125
rid:62 add input _25chan124
rid:63 add output _25chan127
rid:63 add input _25chan126
rid:0 add output _25chan0
rid:0 add input _25chan1
rid:1 add output _25chan2
rid:1 add input _25chan3
rid:2 add output _25chan4
rid:2 add input _25chan5
rid:3 add output _25chan6
rid:3 add input _25chan7
rid:4 add output _25chan8
rid:4 add input _25chan9
rid:5 add output _25chan10
rid:5 add input _25chan11
rid:6 add output _25chan12
rid:6 add input _25chan13
rid:7 add output _25chan14
rid:7 add input _25chan15
rid:8 add output _25chan16
rid:8 add input _25chan17
rid:9 add output _25chan18
rid:9 add input _25chan19
rid:10 add output _25chan20
rid:10 add input _25chan21
rid:11 add output _25chan22
rid:11 add input _25chan23
rid:12 add output _25chan24
rid:12 add input _25chan25
rid:13 add output _25chan26
rid:13 add input _25chan27
rid:14 add output _25chan28
rid:14 add input _25chan29
rid:15 add output _25chan30
rid:15 add input _25chan31
rid:0 add output _25chan32
rid:0 add input _25chan33
rid:1 add output _25chan34
rid:1 add input _25chan35
rid:2 add output _25chan36
rid:2 add input _25chan37
rid:3 add output _25chan38
rid:3 add input _25chan39
rid:4 add output _25chan40
rid:4 add input _25chan41
rid:5 add output _25chan42
rid:5 add input _25chan43
rid:6 add output _25chan44
rid:6 add input _25chan45
rid:7 add output _25chan46
rid:7 add input _25chan47
rid:8 add output _25chan48
rid:8 add input _25chan49
rid:9 add output _25chan50
rid:9 add input _25chan51
rid:10 add output _25chan52
rid:10 add input _25chan53
rid:11 add output _25chan54
rid:11 add input _25chan55
rid:12 add output _25chan56
rid:12 add input _25chan57
rid:13 add output _25chan58
rid:13 add input _25chan59
rid:14 add output _25chan60
rid:14 add input _25chan61
rid:15 add output _25chan62
rid:15 add input _25chan63
rid:0 add output _25chan64
rid:0 add input _25chan65
rid:1 add output _25chan66
rid:1 add input _25chan67
rid:2 add output _25chan68
rid:2 add input _25chan69
rid:3 add output _25chan70
rid:3 add input _25chan71
rid:4 add output _25chan72
rid:4 add input _25chan73
rid:5 add output _25chan74
rid:5 add input _25chan75
rid:6 add output _25chan76
rid:6 add input _25chan77
rid:7 add output _25chan78
rid:7 add input _25chan79
rid:8 add output _25chan80
rid:8 add input _25chan81
rid:9 add output _25chan82
rid:9 add input _25chan83
rid:10 add output _25chan84
rid:10 add input _25chan85
rid:11 add output _25chan86
rid:11 add input _25chan87
rid:12 add output _25chan88
rid:12 add input _25chan89
rid:13 add output _25chan90
rid:13 add input _25chan91
rid:14 add output _25chan92
rid:14 add input _25chan93
rid:15 add output _25chan94
rid:15 add input _25chan95
rid:0 add output _25chan96
rid:0 add input _25chan97
rid:1 add output _25chan98
rid:1 add input _25chan99
rid:2 add output _25chan100
rid:2 add input _25chan101
rid:3 add output _25chan102
rid:3 add input _25chan103
rid:4 add output _25chan104
rid:4 add input _25chan105
rid:5 add output _25chan106
rid:5 add input _25chan107
rid:6 add output _25chan108
rid:6 add input _25chan109
rid:7 add output _25chan110
rid:7 add input _25chan111
rid:8 add output _25chan112
rid:8 add input _25chan113
rid:9 add output _25chan114
rid:9 add input _25chan115
rid:10 add output _25chan116
rid:10 add input _25chan117
rid:11 add output _25chan118
rid:11 add input _25chan119
rid:12 add output _25chan120
rid:12 add input _25chan121
rid:13 add output _25chan122
rid:13 add input _25chan123
rid:14 add output _25chan124
rid:14 add input _25chan125
rid:15 add output _25chan126
rid:15 add input _25chan127
Warming up...

Tick: 0M
===== Time: 25000 =====
Class 0:
Packets read from trace = 1 of 48012223 (0%)
Future packets = 1
Waiting packets = 0
Stalled packets = 0
Packets pending injection = 0
Packets in flight = 0
Minimum packet latency = nan
Average packet latency = -nan
Maximum packet latency = -nan
Minimum network latency = nan
Average network latency = -nan
Maximum network latency = -nan
Slowest packet = -1
Minimum flit latency = nan
Average flit latency = -nan
Maximum flit latency = -nan
Slowest flit = -1
Minimum fragmentation = nan
Average fragmentation = -nan
Maximum fragmentation = -nan
Minimum injected packet rate = 0 (at node 0)
Average injected packet rate = 0
Maximum injected packet rate = 0 (at node 0)
Minimum accepted packet rate = 0 (at node 0)
Average accepted packet rate = 0
Maximum accepted packet rate = 0 (at node 0)
Minimum injected flit rate = 0 (at node 0)
Average injected flit rate = 0
Maximum injected flit rate = 0 (at node 0)
Minimum accepted flit rate = 0 (at node 0)
Average accepted flit rate = 0
Maximum accepted flit rate = 0 (at node 0)
Total number of injected packets = 0
Total number of injected flits = 0
Average injected packet length = -nan
Total number of accepted packets = 0
Total number of accepted flits = 0
Average accepted packet length = -nan
Total in-flight flits = 0 (0 measured)
Warmup ends after 25000 cycles.
Beginning measurements...
===== Time: 50000 =====
Class 0:
Packets read from trace = 20 of 48012223 (0%)
Future packets = 1
Waiting packets = 0
Stalled packets = 0
Packets pending injection = 0
Packets in flight = 0
Minimum packet latency = 302
Average packet latency = 589.368
Maximum packet latency = 787
Minimum network latency = 299
Average network latency = 583.368
Maximum network latency = 787
Slowest packet = 1
Minimum flit latency = 246
Average flit latency = 516.193
Maximum flit latency = 748
Slowest flit = 2
Minimum fragmentation = 0
Average fragmentation = 18.9474
Maximum fragmentation = 45
Minimum injected packet rate = 0 (at node 0)
Average injected packet rate = 5.9375e-06
Maximum injected packet rate = 0.00032 (at node 66)
Minimum accepted packet rate = 0 (at node 0)
Average accepted packet rate = 5.9375e-06
Maximum accepted packet rate = 0.00024 (at node 103)
Minimum injected flit rate = 0 (at node 0)
Average injected flit rate = 2.59375e-05
Maximum injected flit rate = 0.00128 (at node 66)
Minimum accepted flit rate = 0 (at node 0)
Average accepted flit rate = 2.59375e-05
Maximum accepted flit rate = 0.0018 (at node 66)
Total number of injected packets = 19
Total number of injected flits = 83
Average injected packet length = 4.36842
Total number of accepted packets = 19
Total number of accepted flits = 83
Average accepted packet length = 4.36842
Total in-flight flits = 0 (0 measured)
===== Time: 75000 =====
Class 0:
Packets read from trace = 20 of 48012223 (0%)
Future packets = 1
Waiting packets = 0
Stalled packets = 0
Packets pending injection = 0
Packets in flight = 0
Minimum packet latency = 302
Average packet latency = 589.368
Maximum packet latency = 787
Minimum network latency = 299
Average network latency = 583.368
Maximum network latency = 787
Slowest packet = 1
Minimum flit latency = 246
Average flit latency = 516.193
Maximum flit latency = 748
Slowest flit = 2
Minimum fragmentation = 0
Average fragmentation = 18.9474
Maximum fragmentation = 45
Minimum injected packet rate = 0 (at node 0)
Average injected packet rate = 2.96875e-06
Maximum injected packet rate = 0.00016 (at node 66)
Minimum accepted packet rate = 0 (at node 0)
Average accepted packet rate = 2.96875e-06
Maximum accepted packet rate = 0.00012 (at node 103)
Minimum injected flit rate = 0 (at node 0)
Average injected flit rate = 1.29688e-05
Maximum injected flit rate = 0.00064 (at node 66)
Minimum accepted flit rate = 0 (at node 0)
Average accepted flit rate = 1.29688e-05
Maximum accepted flit rate = 0.0009 (at node 66)
Total number of injected packets = 19
Total number of injected flits = 83
Average injected packet length = 4.36842
Total number of accepted packets = 19
Total number of accepted flits = 83
Average accepted packet length = 4.36842
Total in-flight flits = 0 (0 measured)
===== Time: 100000 =====
Class 0:
Packets read from trace = 40 of 48012223 (0%)
Future packets = 1
Waiting packets = 0
Stalled packets = 0
Packets pending injection = 0
Packets in flight = 0
Minimum packet latency = 240
Average packet latency = 526.59
Maximum packet latency = 787
Minimum network latency = 238
Average network latency = 520.846
Maximum network latency = 787
Slowest packet = 1
Minimum flit latency = 185
Average flit latency = 457.114
Maximum flit latency = 748
Slowest flit = 2
Minimum fragmentation = 0
Average fragmentation = 20.3846
Maximum fragmentation = 60
Minimum injected packet rate = 0 (at node 0)
Average injected packet rate = 4.0625e-06
Maximum injected packet rate = 0.000213333 (at node 66)
Minimum accepted packet rate = 0 (at node 0)
Average accepted packet rate = 4.0625e-06
Maximum accepted packet rate = 0.000133333 (at node 66)
Minimum injected flit rate = 0 (at node 0)
Average injected flit rate = 1.82292e-05
Maximum injected flit rate = 0.000853333 (at node 66)
Minimum accepted flit rate = 0 (at node 0)
Average accepted flit rate = 1.82292e-05
Maximum accepted flit rate = 0.0012 (at node 66)
Total number of injected packets = 39
Total number of injected flits = 175
Average injected packet length = 4.48718
Total number of accepted packets = 39
Total number of accepted flits = 175
Average accepted packet length = 4.48718
Total in-flight flits = 0 (0 measured)
===== Time: 125000 =====
Class 0:
Packets read from trace = 40 of 48012223 (0%)
Future packets = 1
Waiting packets = 0
Stalled packets = 0
Packets pending injection = 0
Packets in flight = 0
Minimum packet latency = 240
Average packet latency = 526.59
Maximum packet latency = 787
Minimum network latency = 238
Average network latency = 520.846
Maximum network latency = 787
Slowest packet = 1
Minimum flit latency = 185
Average flit latency = 457.114
Maximum flit latency = 748
Slowest flit = 2
Minimum fragmentation = 0
Average fragmentation = 20.3846
Maximum fragmentation = 60
Minimum injected packet rate = 0 (at node 0)
Average injected packet rate = 3.04687e-06
Maximum injected packet rate = 0.00016 (at node 66)
Minimum accepted packet rate = 0 (at node 0)
Average accepted packet rate = 3.04687e-06
Maximum accepted packet rate = 0.0001 (at node 66)
Minimum injected flit rate = 0 (at node 0)
Average injected flit rate = 1.36719e-05
Maximum injected flit rate = 0.00064 (at node 66)
Minimum accepted flit rate = 0 (at node 0)
Average accepted flit rate = 1.36719e-05
Maximum accepted flit rate = 0.0009 (at node 66)
Total number of injected packets = 39
Total number of injected flits = 175
Average injected packet length = 4.48718
Total number of accepted packets = 39
Total number of accepted flits = 175
Average accepted packet length = 4.48718
Total in-flight flits = 0 (0 measured)
===== Time: 150000 =====
Class 0:
Packets read from trace = 49 of 48012223 (0%)
Future packets = 1
Waiting packets = 0
Stalled packets = 0
Packets pending injection = 0
Packets in flight = 0
Minimum packet latency = 240
Average packet latency = 559.646
Maximum packet latency = 789
Minimum network latency = 238
Average network latency = 553.875
Maximum network latency = 787
Slowest packet = 1
Minimum flit latency = 185
Average flit latency = 504.537
Maximum flit latency = 748
Slowest flit = 2
Minimum fragmentation = 0
Average fragmentation = 20.3125
Maximum fragmentation = 60
Minimum injected packet rate = 0 (at node 0)
Average injected packet rate = 3e-06
Maximum injected packet rate = 0.00016 (at node 66)
Minimum accepted packet rate = 0 (at node 0)
Average accepted packet rate = 3e-06
Maximum accepted packet rate = 0.000104 (at node 66)
Minimum injected flit rate = 0 (at node 0)
Average injected flit rate = 1.35e-05
Maximum injected flit rate = 0.000608 (at node 66)
Minimum accepted flit rate = 0 (at node 0)
Average accepted flit rate = 1.35e-05
Maximum accepted flit rate = 0.000936 (at node 66)
Total number of injected packets = 48
Total number of injected flits = 216
Average injected packet length = 4.5
Total number of accepted packets = 48
Total number of accepted flits = 216
Average accepted packet length = 4.5
Total in-flight flits = 0 (0 measured)
===== Time: 175000 =====
Class 0:
Packets read from trace = 67 of 48012223 (0%)
Future packets = 1
Waiting packets = 0
Stalled packets = 9
Packets pending injection = 0
Packets in flight = 1
Minimum packet latency = 240
Average packet latency = 566.643
Maximum packet latency = 789
Minimum network latency = 238
Average network latency = 561.607
Maximum network latency = 787
Slowest packet = 1
Minimum flit latency = 185
Average flit latency = 504.828
Maximum flit latency = 748
Slowest flit = 2
Minimum fragmentation = 0
Average fragmentation = 20.625
Maximum fragmentation = 60
Minimum injected packet rate = 0 (at node 0)
Average injected packet rate = 2.96875e-06
Maximum injected packet rate = 0.000166667 (at node 66)
Minimum accepted packet rate = 0 (at node 0)
Average accepted packet rate = 2.91667e-06
Maximum accepted packet rate = 0.000113333 (at node 66)
Minimum injected flit rate = 0 (at node 0)
Average injected flit rate = 1.33854e-05
Maximum injected flit rate = 0.000593333 (at node 66)
Minimum accepted flit rate = 0 (at node 0)
Average accepted flit rate = 1.33333e-05
Maximum accepted flit rate = 0.000966667 (at node 66)
Total number of injected packets = 57
Total number of injected flits = 257
Average injected packet length = 4.50877
Total number of accepted packets = 56
Total number of accepted flits = 256
Average accepted packet length = 4.57143
Total in-flight flits = 1 (1 measured)
===== Time: 200000 =====
Class 0:
Packets read from trace = 67 of 48012223 (0%)
Future packets = 1
Waiting packets = 0
Stalled packets = 0
Packets pending injection = 0
Packets in flight = 0
Minimum packet latency = 240
Average packet latency = 574.758
Maximum packet latency = 789
Minimum network latency = 238
Average network latency = 568.879
Maximum network latency = 787
Slowest packet = 1
Minimum flit latency = 185
Average flit latency = 504.148
Maximum flit latency = 748
Slowest flit = 2
Minimum fragmentation = 0
Average fragmentation = 20.2273
Maximum fragmentation = 60
Minimum injected packet rate = 0 (at node 0)
Average injected packet rate = 2.94643e-06
Maximum injected packet rate = 0.000171429 (at node 66)
Minimum accepted packet rate = 0 (at node 0)
Average accepted packet rate = 2.94643e-06
Maximum accepted packet rate = 0.00012 (at node 66)
Minimum injected flit rate = 0 (at node 0)
Average injected flit rate = 1.33036e-05
Maximum injected flit rate = 0.000628571 (at node 66)
Minimum accepted flit rate = 0 (at node 0)
Average accepted flit rate = 1.33036e-05
Maximum accepted flit rate = 0.000942857 (at node 66)
Total number of injected packets = 66
Total number of injected flits = 298
Average injected packet length = 4.51515
Total number of accepted packets = 66
Total number of accepted flits = 298
Average accepted packet length = 4.51515
Total in-flight flits = 0 (0 measured)
===== Time: 225000 =====
Class 0:
Packets read from trace = 82 of 48012223 (0%)
Future packets = 1
Waiting packets = 0
Stalled packets = 12
Packets pending injection = 0
Packets in flight = 1
Minimum packet latency = 240
Average packet latency = 574.838
Maximum packet latency = 789
Minimum network latency = 238
Average network latency = 569.132
Maximum network latency = 787
Slowest packet = 1
Minimum flit latency = 185
Average flit latency = 506.003
Maximum flit latency = 748
Slowest flit = 2
Minimum fragmentation = 0
Average fragmentation = 20.2941
Maximum fragmentation = 60
Minimum injected packet rate = 0 (at node 0)
Average injected packet rate = 2.69531e-06
Maximum injected packet rate = 0.00016 (at node 66)
Minimum accepted packet rate = 0 (at node 0)
Average accepted packet rate = 2.65625e-06
Maximum accepted packet rate = 0.00011 (at node 66)
Minimum injected flit rate = 0 (at node 0)
Average injected flit rate = 1.20703e-05
Maximum injected flit rate = 0.00056 (at node 66)
Minimum accepted flit rate = 0 (at node 0)
Average accepted flit rate = 1.20312e-05
Maximum accepted flit rate = 0.00087 (at node 66)
Total number of injected packets = 69
Total number of injected flits = 309
Average injected packet length = 4.47826
Total number of accepted packets = 68
Total number of accepted flits = 308
Average accepted packet length = 4.52941
Total in-flight flits = 1 (1 measured)
===== Time: 250000 =====
Class 0:
Packets read from trace = 91 of 48012223 (0%)
Future packets = 1
Waiting packets = 0
Stalled packets = 0
Packets pending injection = 0
Packets in flight = 0
Minimum packet latency = 240
Average packet latency = 581.133
Maximum packet latency = 789
Minimum network latency = 238
Average network latency = 575.6
Maximum network latency = 787
Slowest packet = 1
Minimum flit latency = 185
Average flit latency = 513.137
Maximum flit latency = 748
Slowest flit = 2
Minimum fragmentation = 0
Average fragmentation = 19.3333
Maximum fragmentation = 60
Minimum injected packet rate = 0 (at node 0)
Average injected packet rate = 3.125e-06
Maximum injected packet rate = 0.000173333 (at node 66)
Minimum accepted packet rate = 0 (at node 0)
Average accepted packet rate = 3.125e-06
Maximum accepted packet rate = 0.00012 (at node 66)
Minimum injected flit rate = 0 (at node 0)
Average injected flit rate = 1.36806e-05
Maximum injected flit rate = 0.000635556 (at node 66)
Minimum accepted flit rate = 0 (at node 0)
Average accepted flit rate = 1.36806e-05
Maximum accepted flit rate = 0.000937778 (at node 66)
Total number of injected packets = 90
Total number of injected flits = 394
Average injected packet length = 4.37778
Total number of accepted packets = 90
Total number of accepted flits = 394
Average accepted packet length = 4.37778
Total in-flight flits = 0 (0 measured)
===== Time: 275000 =====
Class 0:
Packets read from trace = 91 of 48012223 (0%)
Future packets = 1
Waiting packets = 0
Stalled packets = 0
Packets pending injection = 0
Packets in flight = 0
Minimum packet latency = 240
Average packet latency = 581.133
Maximum packet latency = 789
Minimum network latency = 238
Average network latency = 575.6
Maximum network latency = 787
Slowest packet = 1
Minimum flit latency = 185
Average flit latency = 513.137
Maximum flit latency = 748
Slowest flit = 2
Minimum fragmentation = 0
Average fragmentation = 19.3333
Maximum fragmentation = 60
Minimum injected packet rate = 0 (at node 0)
Average injected packet rate = 2.8125e-06
Maximum injected packet rate = 0.000156 (at node 66)
Minimum accepted packet rate = 0 (at node 0)
Average accepted packet rate = 2.8125e-06
Maximum accepted packet rate = 0.000108 (at node 66)
Minimum injected flit rate = 0 (at node 0)
Average injected flit rate = 1.23125e-05
Maximum injected flit rate = 0.000572 (at node 66)
Minimum accepted flit rate = 0 (at node 0)
Average accepted flit rate = 1.23125e-05
Maximum accepted flit rate = 0.000844 (at node 66)
Total number of injected packets = 90
Total number of injected flits = 394
Average injected packet length = 4.37778
Total number of accepted packets = 90
Total number of accepted flits = 394
Average accepted packet length = 4.37778
Total in-flight flits = 0 (0 measured)
===== Time: 300000 =====
Class 0:
Packets read from trace = 95 of 48012223 (0%)
Future packets = 1
Waiting packets = 0
Stalled packets = 0
Packets pending injection = 0
Packets in flight = 0
Minimum packet latency = 240
Average packet latency = 577.819
Maximum packet latency = 789
Minimum network latency = 238
Average network latency = 572.521
Maximum network latency = 787
Slowest packet = 1
Minimum flit latency = 185
Average flit latency = 513.909
Maximum flit latency = 748
Slowest flit = 2
Minimum fragmentation = 0
Average fragmentation = 18.9894
Maximum fragmentation = 60
Minimum injected packet rate = 0 (at node 0)
Average injected packet rate = 2.67045e-06
Maximum injected packet rate = 0.000145455 (at node 66)
Minimum accepted packet rate = 0 (at node 0)
Average accepted packet rate = 2.67045e-06
Maximum accepted packet rate = 0.000101818 (at node 66)
Minimum injected flit rate = 0 (at node 0)
Average injected flit rate = 1.15341e-05
Maximum injected flit rate = 0.000523636 (at node 66)
Minimum accepted flit rate = 0 (at node 0)
Average accepted flit rate = 1.15341e-05
Maximum accepted flit rate = 0.0008 (at node 66)
Total number of injected packets = 94
Total number of injected flits = 406
Average injected packet length = 4.31915
Total number of accepted packets = 94
Total number of accepted flits = 406
Average accepted packet length = 4.31915
Total in-flight flits = 0 (0 measured)
===== Time: 325000 =====
Class 0:
Packets read from trace = 119 of 48012223 (0%)
Future packets = 1
Waiting packets = 0
Stalled packets = 0
Packets pending injection = 0
Packets in flight = 0
Minimum packet latency = 185
Average packet latency = 541.771
Maximum packet latency = 789
Minimum network latency = 185
Average network latency = 536.102
Maximum network latency = 787
Slowest packet = 1
Minimum flit latency = 185
Average flit latency = 496.869
Maximum flit latency = 748
Slowest flit = 2
Minimum fragmentation = 0
Average fragmentation = 18.5593
Maximum fragmentation = 60
Minimum injected packet rate = 0 (at node 0)
Average injected packet rate = 3.07292e-06
Maximum injected packet rate = 0.00018 (at node 66)
Minimum accepted packet rate = 0 (at node 0)
Average accepted packet rate = 3.07292e-06
Maximum accepted packet rate = 0.000126667 (at node 66)
Minimum injected flit rate = 0 (at node 0)
Average injected flit rate = 1.30729e-05
Maximum injected flit rate = 0.000633333 (at node 66)
Minimum accepted flit rate = 0 (at node 0)
Average accepted flit rate = 1.30729e-05
Maximum accepted flit rate = 0.0009 (at node 66)
Total number of injected packets = 118
Total number of injected flits = 502
Average injected packet length = 4.25424
Total number of accepted packets = 118
Total number of accepted flits = 502
Average accepted packet length = 4.25424
Total in-flight flits = 0 (0 measured)
Completed measurements after 325000 cycles.
Draining remaining packets ...
Time taken is 325000 cycles
====== Traffic class 0 ======

Total number of flits generated = 502, changed lanes = 0
Overall minimum packet latency = 185 (1 samples)
Overall average packet latency = 541.771 (1 samples)
Overall maximum packet latency = 789 (1 samples)
Overall minimum network latency = 185 (1 samples)
Overall average network latency = 536.102 (1 samples)
Overall maximum network latency = 787 (1 samples)
Overall minimum flit latency = 185 (1 samples)
Overall average flit latency = 496.869 (1 samples)
Overall maximum flit latency = 748 (1 samples)
Overall minimum fragmentation = 0 (1 samples)
Overall average fragmentation = 18.5593 (1 samples)
Overall maximum fragmentation = 60 (1 samples)
Overall minimum injected packet rate = 0 (1 samples)
Overall average injected packet rate = 3.07292e-06 (1 samples)
Overall maximum injected packet rate = 0.00018 (1 samples)
Overall minimum accepted packet rate = 0 (1 samples)
Overall average accepted packet rate = 3.07292e-06 (1 samples)
Overall maximum accepted packet rate = 0.000126667 (1 samples)
Overall minimum injected flit rate = 0 (1 samples)
Overall average injected flit rate = 1.30729e-05 (1 samples)
Overall maximum injected flit rate = 0.000633333 (1 samples)
Overall minimum accepted flit rate = 0 (1 samples)
Overall average accepted flit rate = 1.30729e-05 (1 samples)
Overall maximum accepted flit rate = 0.0009 (1 samples)
Overall average injected packet size = 4.25424 (1 samples)
Overall average accepted packet size = 4.25424 (1 samples)
Overall average hops = 8.38983 (1 samples)
Overall throughput of the network (flits/cycle) = 0.00167333
Overall throughput of the network (packets/cycle) = 0.000393333
CSV Result Header , avgFLat,avgFInjRate
CSV Result ,496.869,3.07292e-06
Overall workload runtime = 300000 (1 samples)

The distribution of the source packets of size 1 is: 

Source [0] = 3
Source [1] = 0
Source [2] = 37
Source [3] = 0
Source [4] = 0
Source [5] = 0
Source [6] = 0
Source [7] = 0
Source [8] = 0
Source [9] = 0
Source [10] = 0
Source [11] = 0
Source [12] = 0
Source [13] = 0
Source [14] = 0
Source [15] = 0
Source [16] = 0
Source [17] = 0
Source [18] = 0
Source [19] = 0
Source [20] = 0
Source [21] = 0
Source [22] = 0
Source [23] = 9
Source [24] = 0
Source [25] = 0
Source [26] = 0
Source [27] = 3
Source [28] = 0
Source [29] = 3
Source [30] = 0
Source [31] = 0
Source [32] = 2
Source [33] = 0
Source [34] = 0
Source [35] = 0
Source [36] = 0
Source [37] = 0
Source [38] = 0
Source [39] = 0
Source [40] = 0
Source [41] = 0
Source [42] = 0
Source [43] = 3
Source [44] = 0
Source [45] = 0
Source [46] = 1
Source [47] = 2
Source [48] = 3
Source [49] = 0
Source [50] = 0
Source [51] = 3
Source [52] = 0
Source [53] = 0
Source [54] = 0
Source [55] = 0
Source [56] = 0
Source [57] = 0
Source [58] = 1
Source [59] = 0
Source [60] = 0
Source [61] = 0
Source [62] = 0
Source [63] = 0
The distribution of the source packets of size 9 is: 

Source [0] = 3
Source [1] = 0
Source [2] = 17
Source [3] = 0
Source [4] = 0
Source [5] = 0
Source [6] = 0
Source [7] = 0
Source [8] = 1
Source [9] = 0
Source [10] = 0
Source [11] = 0
Source [12] = 0
Source [13] = 0
Source [14] = 0
Source [15] = 0
Source [16] = 0
Source [17] = 0
Source [18] = 0
Source [19] = 1
Source [20] = 0
Source [21] = 0
Source [22] = 0
Source [23] = 0
Source [24] = 0
Source [25] = 0
Source [26] = 0
Source [27] = 4
Source [28] = 0
Source [29] = 2
Source [30] = 0
Source [31] = 3
Source [32] = 1
Source [33] = 0
Source [34] = 0
Source [35] = 0
Source [36] = 0
Source [37] = 0
Source [38] = 0
Source [39] = 3
Source [40] = 0
Source [41] = 0
Source [42] = 0
Source [43] = 3
Source [44] = 0
Source [45] = 0
Source [46] = 1
Source [47] = 0
Source [48] = 3
Source [49] = 0
Source [50] = 0
Source [51] = 3
Source [52] = 0
Source [53] = 0
Source [54] = 0
Source [55] = 0
Source [56] = 2
Source [57] = 1
Source [58] = 0
Source [59] = 0
Source [60] = 0
Source [61] = 0
Source [62] = 0
Source [63] = 0
The distribution of the dest packets of size 1 is: 

dest [0] = 6
dest [1] = 0
dest [2] = 9
dest [3] = 0
dest [4] = 0
dest [5] = 0
dest [6] = 0
dest [7] = 0
dest [8] = 0
dest [9] = 0
dest [10] = 0
dest [11] = 0
dest [12] = 0
dest [13] = 0
dest [14] = 0
dest [15] = 0
dest [16] = 0
dest [17] = 0
dest [18] = 0
dest [19] = 0
dest [20] = 0
dest [21] = 0
dest [22] = 0
dest [23] = 9
dest [24] = 0
dest [25] = 0
dest [26] = 0
dest [27] = 6
dest [28] = 0
dest [29] = 5
dest [30] = 0
dest [31] = 3
dest [32] = 3
dest [33] = 0
dest [34] = 0
dest [35] = 0
dest [36] = 0
dest [37] = 0
dest [38] = 0
dest [39] = 3
dest [40] = 0
dest [41] = 0
dest [42] = 0
dest [43] = 6
dest [44] = 0
dest [45] = 0
dest [46] = 2
dest [47] = 2
dest [48] = 6
dest [49] = 0
dest [50] = 0
dest [51] = 6
dest [52] = 0
dest [53] = 0
dest [54] = 0
dest [55] = 0
dest [56] = 2
dest [57] = 1
dest [58] = 1
dest [59] = 0
dest [60] = 0
dest [61] = 0
dest [62] = 0
dest [63] = 0
The distribution of the dest packets of size 9 is: 

dest [0] = 0
dest [1] = 0
dest [2] = 29
dest [3] = 0
dest [4] = 0
dest [5] = 0
dest [6] = 2
dest [7] = 0
dest [8] = 3
dest [9] = 1
dest [10] = 0
dest [11] = 0
dest [12] = 0
dest [13] = 0
dest [14] = 0
dest [15] = 0
dest [16] = 0
dest [17] = 0
dest [18] = 0
dest [19] = 4
dest [20] = 0
dest [21] = 0
dest [22] = 0
dest [23] = 2
dest [24] = 0
dest [25] = 0
dest [26] = 0
dest [27] = 3
dest [28] = 0
dest [29] = 0
dest [30] = 2
dest [31] = 1
dest [32] = 0
dest [33] = 0
dest [34] = 0
dest [35] = 1
dest [36] = 0
dest [37] = 0
dest [38] = 0
dest [39] = 0
dest [40] = 0
dest [41] = 0
dest [42] = 0
dest [43] = 0
dest [44] = 0
dest [45] = 0
dest [46] = 0
dest [47] = 0
dest [48] = 0
dest [49] = 0
dest [50] = 0
dest [51] = 0
dest [52] = 0
dest [53] = 0
dest [54] = 0
dest [55] = 0
dest [56] = 0
dest [57] = 0
dest [58] = 0
dest [59] = 0
dest [60] = 0
dest [61] = 0
dest [62] = 0
dest [63] = 0
Power Report Header, Frequency, Time, StaticIQ, DynamicIQ, StaticVC, DynamicVC, StaticSA, DynamicSA, StaticST, DynamicST, StaticLink, DynamicLink, NoFlits, ePerFlit
Power Report,3.9e+08,325000,0.131875,4.07768e-05,0.00749762,3.22764e-07,0.00224928,3.36044e-07,0.477597,1.18665e-05,0.0905466,2.87739e-05,502,1.17837e-06

*****************************************
Total run time 75.0581
generate:0x7ffda0d93570
delete:0x7ffda0d93570
L = 2 K = 8.1 M = 2 N = 1
-----------------------------------------
- OCN Power Summary
- Completion Time:         325000
- Flit Widths:            64
- Channel Wire Power:      0.0038763
- Channel Clock Power:     1.46183
- Channel Retiming Power:  4.81609e-05
- Channel Leakage Power:   0.551082
- Input Read Power:        0.000118066
- Input Write Power:       0.000118066
- Input Leakage Power:     0.113246
- Switch Power:            0.000269862
- Switch Control Power:    0.000132556
- Switch Leakage Power:    0.771052
- Output DFF Power:        2.75175e-05
- Output Clk Power:        0.727126
- Output Control Power:    1.42013e-05
- Total Power:             3.62894
-----------------------------------------

-----------------------------------------
- OCN Area Summary
- Channel Area:  0.109536
- Switch  Area:  0.241592
- Input  Area:   0.120796
- Output  Area:  0.0201327
- Total Area:    0.492056
-----------------------------------------
CSV Power Result Header , Completion Time, Channel Wire, Channel Clock, Channel Retiming, Channel Leakage, Input Read, Input Write, Input Leakage, Switch Power, Switch Control, Switch Leakage, Output DFF, Output Clk, Output Control
CSV Power Result , 325000, 0.0038763, 1.46183, 4.81609e-05, 0.551082, 0.000118066, 0.000118066, 0.113246, 0.000269862, 0.000132556, 0.771052, 2.75175e-05, 0.727126, 1.42013e-05
delete:0x7ffda0d93570
delete:0x7ffda0d93570
delete:0x7ffda0d93570
delete:0x7ffda0d93570
delete:0x7ffda0d93570
delete:0x7ffda0d93570
