generate:0x7fffce27fef0
generate:0x7fffce27ffa8
generate:0x7fffce280060
generate:0x7fffce280118
generate:0x7fffce2801d0
generate:0x7fffce280340
BEGIN Configuration File: interposer5
//topology
topology = mesh;
k = 8;
n = 2;
type = interposer;
// Routing
routing_function = dor;

// Flow control
num_vcs     = 2;
vc_buf_size = 8;
wait_for_tail_credit = 1;
hold_switch_for_packet = 1;

// Router architecture
vc_allocator = islip;
sw_allocator = islip;
alloc_iters  = 1;

credit_delay   = 0;
routing_delay  = 1;
vc_alloc_delay = 1;
sw_alloc_delay = 1;
st_final_delay = 1;

input_speedup     = 1;
output_speedup    = 1;
internal_speedup  = 1.0;
vc_busy_when_full = 0;


//granulaity
latency_thres=20000.0;
deadlock_warn_timeout=20000;
traceStretch=3;

//gating
doGating=0;
sleepThreshold=40;
breakEvenThreshold=80;



//Syn Traffic
//sim_type=latency;
//traffic=uniform;
//packet_size = 1;
//sample_period=2500;
//warmup_periods=1;
//max_samples=10;
//injection_rate=0.0001;

sim_type = workload;
traffic=uniform;

workload=netrace({/home/yuri/Documents/fluidanimate_64c_simsmall.tra.bz2,100000000,1,2,1,1,0);
//packet_size = 1;
sample_period=25000;
warmup_periods=1;
max_samples=12;
//injection_rate=0.0001;

creditDelays=creditDelays({0,0,0,0,0,0,0,0,0,0,0,0,0,0,0,0,0,0,0,0,0,0,0,0,0,0,0,0,0,0,0,0,0,0,0,0,0,0,0,0,0,0,0,0,0,0,0,0,0,0,0,0,0,0,0,0,0,0,0,0,0,0,0,0}});
routingDelays=routingDelays({15,15,15,15,15,15,15,15,15,15,15,15,15,15,15,15,15,15,15,15,15,15,15,15,15,15,15,15,15,15,15,15,15,15,15,15,15,15,15,15,15,15,15,15,15,15,15,15,15,15,15,15,15,15,15,15,15,15,15,15,15,15,15,15});
vcAllocDelays=vcAllocDelays({15,15,15,15,15,15,15,15,15,15,15,15,15,15,15,15,15,15,15,15,15,15,15,15,15,15,15,15,15,15,15,15,15,15,15,15,15,15,15,15,15,15,15,15,15,15,15,15,15,15,15,15,15,15,15,15,15,15,15,15,15,15,15,15});
swAllocDelays=swAllocDelays({15,15,15,15,15,15,15,15,15,15,15,15,15,15,15,15,15,15,15,15,15,15,15,15,15,15,15,15,15,15,15,15,15,15,15,15,15,15,15,15,15,15,15,15,15,15,15,15,15,15,15,15,15,15,15,15,15,15,15,15,15,15,15,15});
stFinalDelays=stFinalDelays({15,15,15,15,15,15,15,15,15,15,15,15,15,15,15,15,15,15,15,15,15,15,15,15,15,15,15,15,15,15,15,15,15,15,15,15,15,15,15,15,15,15,15,15,15,15,15,15,15,15,15,15,15,15,15,15,15,15,15,15,15,15,15,15});

isAsync=isAsync({0,0,0,0,0,0,0,0,0,0,0,0,0,0,0,0,0,0,0,0,0,0,0,0,0,0,0,0,0,0,0,0,0,0,0,0,0,0,0,0,0,0,0,0,0,0,0,0,0,0,0,0,0,0,0,0,0,0,0,0,0,0,0,0});
isMetaUnstable=isMetaUnstable({0,0,0,0,0,0,0,0,0,0,0,0,0,0,0,0,0,0,0,0,0,0,0,0,0,0,0,0,0,0,0,0,0,0,0,0,0,0,0,0,0,0,0,0,0,0,0,0,0,0,0,0,0,0,0,0,0,0,0,0,0,0,0,0});

creditDelayStdDevs=creditDelayStdDevs({0,0,0,0,0,0,0,0,0,0,0,0,0,0,0,0,0,0,0,0,0,0,0,0,0,0,0,0,0,0,0,0,0,0,0,0,0,0,0,0,0,0,0,0,0,0,0,0,0,0,0,0,0,0,0,0,0,0,0,0,0,0,0,0});
routingDelayStdDevs=routingDelayStdDevs({0,0,0,0,0,0,0,0,0,0,0,0,0,0,0,0,0,0,0,0,0,0,0,0,0,0,0,0,0,0,0,0,0,0,0,0,0,0,0,0,0,0,0,0,0,0,0,0,0,0,0,0,0,0,0,0,0,0,0,0,0,0,0,0});
vcAllocDelayStdDevs=vcAllocDelayStdDevs({0,0,0,0,0,0,0,0,0,0,0,0,0,0,0,0,0,0,0,0,0,0,0,0,0,0,0,0,0,0,0,0,0,0,0,0,0,0,0,0,0,0,0,0,0,0,0,0,0,0,0,0,0,0,0,0,0,0,0,0,0,0,0,0});
swAllocDelayStdDevs=swAllocDelayStdDevs({0,0,0,0,0,0,0,0,0,0,0,0,0,0,0,0,0,0,0,0,0,0,0,0,0,0,0,0,0,0,0,0,0,0,0,0,0,0,0,0,0,0,0,0,0,0,0,0,0,0,0,0,0,0,0,0,0,0,0,0,0,0,0,0});
stFinalDelayStdDevs=stFinalDelayStdDevs({0,0,0,0,0,0,0,0,0,0,0,0,0,0,0,0,0,0,0,0,0,0,0,0,0,0,0,0,0,0,0,0,0,0,0,0,0,0,0,0,0,0,0,0,0,0,0,0,0,0,0,0,0,0,0,0,0,0,0,0,0,0,0,0});

  
swAllocThresholds=swAllocThresholds({1,1,1,1,1,1,1,1,1,1,1,1,1,1,1,1,1,1,1,1,1,1,1,1,1,1,1,1,1,1,1,1,1,1,1,1,1,1,1,1,1,1,1,1,1,1,1,1,1,1,1,1,1,1,1,1,1,1,1,1,1,1,1,1});
swAllocThresholdStdDevs=swAllocThresholdStdDevs({0,0,0,0,0,0,0,0,0,0,0,0,0,0,0,0,0,0,0,0,0,0,0,0,0,0,0,0,0,0,0,0,0,0,0,0,0,0,0,0,0,0,0,0,0,0,0,0,0,0,0,0,0,0,0,0,0,0,0,0,0,0,0,0});
swAllocMetaStableThresholds=swAllocMetaStableThresholds({1,1,1,1,1,1,1,1,1,1,1,1,1,1,1,1,1,1,1,1,1,1,1,1,1,1,1,1,1,1,1,1,1,1,1,1,1,1,1,1,1,1,1,1,1,1,1,1,1,1,1,1,1,1,1,1,1,1,1,1,1,1,1,1});
swAllocMetaStableMaxPenalities=swAllocMetaStableMaxPenalities({0,0,0,0,0,0,0,0,0,0,0,0,0,0,0,0,0,0,0,0,0,0,0,0,0,0,0,0,0,0,0,0,0,0,0,0,0,0,0,0,0,0,0,0,0,0,0,0,0,0,0,0,0,0,0,0,0,0,0,0,0,0,0,0});

END Configuration File: interposer5
BEGIN Configuration File: chip1_1
//topology
topology = mesh;
k = 4;
n = 2;
type = chip;
start_point = 0;
cnum=1;
// Routing
routing_function = dor;

// Flow control
num_vcs     = 2;
vc_buf_size = 8;
wait_for_tail_credit = 1;
hold_switch_for_packet = 1;

// Router architecture
vc_allocator = islip;
sw_allocator = islip;
alloc_iters  = 1;

credit_delay   = 1;
routing_delay  = 1;
vc_alloc_delay = 1;
sw_alloc_delay = 1;
st_final_delay = 1;

input_speedup     = 1;
output_speedup    = 1;
internal_speedup  = 1.0;
vc_busy_when_full = 0;


//granulaity
latency_thres=20000.0;
deadlock_warn_timeout=20000;
traceStretch=3;

//gating
doGating=0;
sleepThreshold=40;
breakEvenThreshold=80;



//Syn Traffic
sim_type=latency;
traffic=uniform;
packet_size = 1;
sample_period=50000;
warmup_periods=1;
max_samples=12;
injection_rate=0.01;

//creditDelays=creditDelays({0,0,0,0,0,0,0,0,0,0,0,0,0,0,0,0});
//routingDelays=routingDelays({1,1,1,1,1,1,1,1,1,1,1,1,1,1,1,1});
//vcAllocDelays=vcAllocDelays({1,1,1,1,1,1,1,1,1,1,1,1,1,1,1,1});
//swAllocDelays=swAllocDelays({1,1,1,1,1,1,1,1,1,1,1,1,1,1,1,1});
//stFinalDelays=stFinalDelays({1,1,1,1,1,1,1,1,1,1,1,1,1,1,1,1});
//channelDelays=channelDelays({1,1,1,1,1,1,1,1,1,1,1,1,1,1,1,1});

creditDelays=creditDelays({0,0,0,0,0,0,0,0,0,0,0,0,0,0,0,0,0,0,0,0,0,0,0,0,0,0,0,0,0,0,0,0,0,0,0,0,0,0,0,0,0,0,0,0,0,0,0,0,0,0,0,0,0,0,0,0,0,0,0,0,0,0,0,0}});
routingDelays=routingDelays({15,15,15,15,15,15,15,15,15,15,15,15,15,15,15,15,15,15,15,15,15,15,15,15,15,15,15,15,15,15,15,15,15,15,15,15,15,15,15,15,15,15,15,15,15,15,15,15,15,15,15,15,15,15,15,15,15,15,15,15,15,15,15,15});
vcAllocDelays=vcAllocDelays({15,15,15,15,15,15,15,15,15,15,15,15,15,15,15,15,15,15,15,15,15,15,15,15,15,15,15,15,15,15,15,15,15,15,15,15,15,15,15,15,15,15,15,15,15,15,15,15,15,15,15,15,15,15,15,15,15,15,15,15,15,15,15,15});
swAllocDelays=swAllocDelays({15,15,15,15,15,15,15,15,15,15,15,15,15,15,15,15,15,15,15,15,15,15,15,15,15,15,15,15,15,15,15,15,15,15,15,15,15,15,15,15,15,15,15,15,15,15,15,15,15,15,15,15,15,15,15,15,15,15,15,15,15,15,15,15});
stFinalDelays=stFinalDelays({15,15,15,15,15,15,15,15,15,15,15,15,15,15,15,15,15,15,15,15,15,15,15,15,15,15,15,15,15,15,15,15,15,15,15,15,15,15,15,15,15,15,15,15,15,15,15,15,15,15,15,15,15,15,15,15,15,15,15,15,15,15,15,15});


isAsync=isAsync({1,1,1,1,1,1,1,1,1,1,1,1,1,1,1,1});
isMetaUnstable=isMetaUnstable({0,0,0,0,0,0,0,0,0,0,0,0,0,0,0,0});

creditDelayStdDevs=creditDelayStdDevs({0,0,0,0,0,0,0,0,0,0,0,0,0,0,0,0});
routingDelayStdDevs=routingDelayStdDevs({0,0,0,0,0,0,0,0,0,0,0,0,0,0,0,0});
vcAllocDelayStdDevs=vcAllocDelayStdDevs({0,0,0,0,0,0,0,0,0,0,0,0,0,0,0,0});
swAllocDelayStdDevs=swAllocDelayStdDevs({0,0,0,0,0,0,0,0,0,0,0,0,0,0,0,0});
stFinalDelayStdDevs=stFinalDelayStdDevs({0,0,0,0,0,0,0,0,0,0,0,0,0,0,0,0});

  
swAllocThresholds=swAllocThresholds({1,1,1,1,1,1,1,1,1,1,1,1,1,1,1,1});
swAllocThresholdStdDevs=swAllocThresholdStdDevs({0,0,0,0,0,0,0,0,0,0,0,0,0,0,0,0});
swAllocMetaStableThresholds=swAllocMetaStableThresholds({1,1,1,1,1,1,1,1,1,1,1,1,1,1,1,1});
swAllocMetaStableMaxPenalities=swAllocMetaStableMaxPenalities({0,0,0,0,0,0,0,0,0,0,0,0,0,0,0,0});

END Configuration File: chip1_1
BEGIN Configuration File: chip2_1
//topology
topology = mesh;
k = 4;
n = 2;
type = chip;
//start_point = 2;
start_point = 4;
cnum = 2;
// Routing
routing_function = dor;

// Flow control
num_vcs     = 2;
vc_buf_size = 8;
wait_for_tail_credit = 1;
hold_switch_for_packet = 1;

// Router architecture
vc_allocator = islip;
sw_allocator = islip;
alloc_iters  = 1;

credit_delay   = 1;
routing_delay  = 1;
vc_alloc_delay = 1;
sw_alloc_delay = 1;
st_final_delay = 1;

input_speedup     = 1;
output_speedup    = 1;
internal_speedup  = 1.0;
vc_busy_when_full = 0;


//granulaity
latency_thres=20000.0;
deadlock_warn_timeout=20000;
traceStretch=3;

//gating
doGating=0;
sleepThreshold=40;
breakEvenThreshold=80;



//Syn Traffic
sim_type=latency;
traffic=uniform;
packet_size = 1;
sample_period=50000;
warmup_periods=3;
max_samples=14;
injection_rate=0.01;

creditDelays=creditDelays({0,0,0,0,0,0,0,0,0,0,0,0,0,0,0,0,0,0,0,0,0,0,0,0,0,0,0,0,0,0,0,0,0,0,0,0,0,0,0,0,0,0,0,0,0,0,0,0,0,0,0,0,0,0,0,0,0,0,0,0,0,0,0,0}});
routingDelays=routingDelays({15,15,15,15,15,15,15,15,15,15,15,15,15,15,15,15,15,15,15,15,15,15,15,15,15,15,15,15,15,15,15,15,15,15,15,15,15,15,15,15,15,15,15,15,15,15,15,15,15,15,15,15,15,15,15,15,15,15,15,15,15,15,15,15});
vcAllocDelays=vcAllocDelays({15,15,15,15,15,15,15,15,15,15,15,15,15,15,15,15,15,15,15,15,15,15,15,15,15,15,15,15,15,15,15,15,15,15,15,15,15,15,15,15,15,15,15,15,15,15,15,15,15,15,15,15,15,15,15,15,15,15,15,15,15,15,15,15});
swAllocDelays=swAllocDelays({15,15,15,15,15,15,15,15,15,15,15,15,15,15,15,15,15,15,15,15,15,15,15,15,15,15,15,15,15,15,15,15,15,15,15,15,15,15,15,15,15,15,15,15,15,15,15,15,15,15,15,15,15,15,15,15,15,15,15,15,15,15,15,15});
stFinalDelays=stFinalDelays({15,15,15,15,15,15,15,15,15,15,15,15,15,15,15,15,15,15,15,15,15,15,15,15,15,15,15,15,15,15,15,15,15,15,15,15,15,15,15,15,15,15,15,15,15,15,15,15,15,15,15,15,15,15,15,15,15,15,15,15,15,15,15,15});


isAsync=isAsync({1,1,1,1,1,1,1,1,1,1,1,1,1,1,1,1});
isMetaUnstable=isMetaUnstable({0,0,0,0,0,0,0,0,0,0,0,0,0,0,0,0});

creditDelayStdDevs=creditDelayStdDevs({0,0,0,0,0,0,0,0,0,0,0,0,0,0,0,0});
routingDelayStdDevs=routingDelayStdDevs({0,0,0,0,0,0,0,0,0,0,0,0,0,0,0,0});
vcAllocDelayStdDevs=vcAllocDelayStdDevs({0,0,0,0,0,0,0,0,0,0,0,0,0,0,0,0});
swAllocDelayStdDevs=swAllocDelayStdDevs({0,0,0,0,0,0,0,0,0,0,0,0,0,0,0,0});
stFinalDelayStdDevs=stFinalDelayStdDevs({0,0,0,0,0,0,0,0,0,0,0,0,0,0,0,0});

  
swAllocThresholds=swAllocThresholds({1,1,1,1,1,1,1,1,1,1,1,1,1,1,1,1});
swAllocThresholdStdDevs=swAllocThresholdStdDevs({0,0,0,0,0,0,0,0,0,0,0,0,0,0,0,0});
swAllocMetaStableThresholds=swAllocMetaStableThresholds({1,1,1,1,1,1,1,1,1,1,1,1,1,1,1,1});
swAllocMetaStableMaxPenalities=swAllocMetaStableMaxPenalities({0,0,0,0,0,0,0,0,0,0,0,0,0,0,0,0});

END Configuration File: chip2_1
BEGIN Configuration File: chip3_1
//topology
topology = mesh;
k = 4;
n = 2;
type = chip;
//start_point = 8;
start_point = 32;
cnum = 3;
// Routing
routing_function = dor;

// Flow control
num_vcs     = 2;
vc_buf_size = 8;
wait_for_tail_credit = 1;
hold_switch_for_packet = 1;

// Router architecture
vc_allocator = islip;
sw_allocator = islip;
alloc_iters  = 1;

credit_delay   = 1;
routing_delay  = 1;
vc_alloc_delay = 1;
sw_alloc_delay = 1;
st_final_delay = 1;

input_speedup     = 1;
output_speedup    = 1;
internal_speedup  = 1.0;
vc_busy_when_full = 0;


//granulaity
latency_thres=20000.0;
deadlock_warn_timeout=20000;
traceStretch=3;

//gating
doGating=0;
sleepThreshold=40;
breakEvenThreshold=80;



//Syn Traffic
sim_type=latency;
traffic=uniform;
packet_size = 1;
sample_period=50000;
warmup_periods=3;
max_samples=14;
injection_rate=0.01;

creditDelays=creditDelays({0,0,0,0,0,0,0,0,0,0,0,0,0,0,0,0,0,0,0,0,0,0,0,0,0,0,0,0,0,0,0,0,0,0,0,0,0,0,0,0,0,0,0,0,0,0,0,0,0,0,0,0,0,0,0,0,0,0,0,0,0,0,0,0}});
routingDelays=routingDelays({15,15,15,15,15,15,15,15,15,15,15,15,15,15,15,15,15,15,15,15,15,15,15,15,15,15,15,15,15,15,15,15,15,15,15,15,15,15,15,15,15,15,15,15,15,15,15,15,15,15,15,15,15,15,15,15,15,15,15,15,15,15,15,15});
vcAllocDelays=vcAllocDelays({15,15,15,15,15,15,15,15,15,15,15,15,15,15,15,15,15,15,15,15,15,15,15,15,15,15,15,15,15,15,15,15,15,15,15,15,15,15,15,15,15,15,15,15,15,15,15,15,15,15,15,15,15,15,15,15,15,15,15,15,15,15,15,15});
swAllocDelays=swAllocDelays({15,15,15,15,15,15,15,15,15,15,15,15,15,15,15,15,15,15,15,15,15,15,15,15,15,15,15,15,15,15,15,15,15,15,15,15,15,15,15,15,15,15,15,15,15,15,15,15,15,15,15,15,15,15,15,15,15,15,15,15,15,15,15,15});
stFinalDelays=stFinalDelays({15,15,15,15,15,15,15,15,15,15,15,15,15,15,15,15,15,15,15,15,15,15,15,15,15,15,15,15,15,15,15,15,15,15,15,15,15,15,15,15,15,15,15,15,15,15,15,15,15,15,15,15,15,15,15,15,15,15,15,15,15,15,15,15});


isAsync=isAsync({1,1,1,1,1,1,1,1,1,1,1,1,1,1,1,1});
isMetaUnstable=isMetaUnstable({0,0,0,0,0,0,0,0,0,0,0,0,0,0,0,0});

creditDelayStdDevs=creditDelayStdDevs({0,0,0,0,0,0,0,0,0,0,0,0,0,0,0,0});
routingDelayStdDevs=routingDelayStdDevs({0,0,0,0,0,0,0,0,0,0,0,0,0,0,0,0});
vcAllocDelayStdDevs=vcAllocDelayStdDevs({0,0,0,0,0,0,0,0,0,0,0,0,0,0,0,0});
swAllocDelayStdDevs=swAllocDelayStdDevs({0,0,0,0,0,0,0,0,0,0,0,0,0,0,0,0});
stFinalDelayStdDevs=stFinalDelayStdDevs({0,0,0,0,0,0,0,0,0,0,0,0,0,0,0,0});

  
swAllocThresholds=swAllocThresholds({1,1,1,1,1,1,1,1,1,1,1,1,1,1,1,1});
swAllocThresholdStdDevs=swAllocThresholdStdDevs({0,0,0,0,0,0,0,0,0,0,0,0,0,0,0,0});
swAllocMetaStableThresholds=swAllocMetaStableThresholds({1,1,1,1,1,1,1,1,1,1,1,1,1,1,1,1});
swAllocMetaStableMaxPenalities=swAllocMetaStableMaxPenalities({0,0,0,0,0,0,0,0,0,0,0,0,0,0,0,0});

END Configuration File: chip3_1
BEGIN Configuration File: chip4_1
//topology
topology = mesh;
k = 4;
n = 2;
type = chip;
//start_point = 10;
start_point = 36;
cnum = 4;
// Routing
routing_function = dor;

// Flow control
num_vcs     = 2;
vc_buf_size = 8;
wait_for_tail_credit = 1;
hold_switch_for_packet = 1;

// Router architecture
vc_allocator = islip;
sw_allocator = islip;
alloc_iters  = 1;

credit_delay   = 1;
routing_delay  = 1;
vc_alloc_delay = 1;
sw_alloc_delay = 1;
st_final_delay = 1;

input_speedup     = 1;
output_speedup    = 1;
internal_speedup  = 1.0;
vc_busy_when_full = 0;


//granulaity
latency_thres=20000.0;
deadlock_warn_timeout=20000;
traceStretch=3;

//gating
doGating=0;
sleepThreshold=40;
breakEvenThreshold=80;



//Syn Traffic
sim_type=latency;
traffic=uniform;
packet_size = 1;
sample_period=50000;
warmup_periods=3;
max_samples=14;
injection_rate=0.01;

creditDelays=creditDelays({0,0,0,0,0,0,0,0,0,0,0,0,0,0,0,0,0,0,0,0,0,0,0,0,0,0,0,0,0,0,0,0,0,0,0,0,0,0,0,0,0,0,0,0,0,0,0,0,0,0,0,0,0,0,0,0,0,0,0,0,0,0,0,0}});
routingDelays=routingDelays({15,15,15,15,15,15,15,15,15,15,15,15,15,15,15,15,15,15,15,15,15,15,15,15,15,15,15,15,15,15,15,15,15,15,15,15,15,15,15,15,15,15,15,15,15,15,15,15,15,15,15,15,15,15,15,15,15,15,15,15,15,15,15,15});
vcAllocDelays=vcAllocDelays({15,15,15,15,15,15,15,15,15,15,15,15,15,15,15,15,15,15,15,15,15,15,15,15,15,15,15,15,15,15,15,15,15,15,15,15,15,15,15,15,15,15,15,15,15,15,15,15,15,15,15,15,15,15,15,15,15,15,15,15,15,15,15,15});
swAllocDelays=swAllocDelays({15,15,15,15,15,15,15,15,15,15,15,15,15,15,15,15,15,15,15,15,15,15,15,15,15,15,15,15,15,15,15,15,15,15,15,15,15,15,15,15,15,15,15,15,15,15,15,15,15,15,15,15,15,15,15,15,15,15,15,15,15,15,15,15});
stFinalDelays=stFinalDelays({15,15,15,15,15,15,15,15,15,15,15,15,15,15,15,15,15,15,15,15,15,15,15,15,15,15,15,15,15,15,15,15,15,15,15,15,15,15,15,15,15,15,15,15,15,15,15,15,15,15,15,15,15,15,15,15,15,15,15,15,15,15,15,15});


isAsync=isAsync({1,1,1,1,1,1,1,1,1,1,1,1,1,1,1,1});
isMetaUnstable=isMetaUnstable({0,0,0,0,0,0,0,0,0,0,0,0,0,0,0,0});

creditDelayStdDevs=creditDelayStdDevs({0,0,0,0,0,0,0,0,0,0,0,0,0,0,0,0});
routingDelayStdDevs=routingDelayStdDevs({0,0,0,0,0,0,0,0,0,0,0,0,0,0,0,0});
vcAllocDelayStdDevs=vcAllocDelayStdDevs({0,0,0,0,0,0,0,0,0,0,0,0,0,0,0,0});
swAllocDelayStdDevs=swAllocDelayStdDevs({0,0,0,0,0,0,0,0,0,0,0,0,0,0,0,0});
stFinalDelayStdDevs=stFinalDelayStdDevs({0,0,0,0,0,0,0,0,0,0,0,0,0,0,0,0});

  
swAllocThresholds=swAllocThresholds({1,1,1,1,1,1,1,1,1,1,1,1,1,1,1,1});
swAllocThresholdStdDevs=swAllocThresholdStdDevs({0,0,0,0,0,0,0,0,0,0,0,0,0,0,0,0});
swAllocMetaStableThresholds=swAllocMetaStableThresholds({1,1,1,1,1,1,1,1,1,1,1,1,1,1,1,1});
swAllocMetaStableMaxPenalities=swAllocMetaStableMaxPenalities({0,0,0,0,0,0,0,0,0,0,0,0,0,0,0,0});

END Configuration File: chip4_1
rid:0 add output _25chan1
rid:0 add input _25chan0
rid:1 add output _25chan3
rid:1 add input _25chan2
rid:2 add output _25chan5
rid:2 add input _25chan4
rid:3 add output _25chan7
rid:3 add input _25chan6
rid:4 add output _25chan33
rid:4 add input _25chan32
rid:5 add output _25chan35
rid:5 add input _25chan34
rid:6 add output _25chan37
rid:6 add input _25chan36
rid:7 add output _25chan39
rid:7 add input _25chan38
rid:8 add output _25chan9
rid:8 add input _25chan8
rid:9 add output _25chan11
rid:9 add input _25chan10
rid:10 add output _25chan13
rid:10 add input _25chan12
rid:11 add output _25chan15
rid:11 add input _25chan14
rid:12 add output _25chan41
rid:12 add input _25chan40
rid:13 add output _25chan43
rid:13 add input _25chan42
rid:14 add output _25chan45
rid:14 add input _25chan44
rid:15 add output _25chan47
rid:15 add input _25chan46
rid:16 add output _25chan17
rid:16 add input _25chan16
rid:17 add output _25chan19
rid:17 add input _25chan18
rid:18 add output _25chan21
rid:18 add input _25chan20
rid:19 add output _25chan23
rid:19 add input _25chan22
rid:20 add output _25chan49
rid:20 add input _25chan48
rid:21 add output _25chan51
rid:21 add input _25chan50
rid:22 add output _25chan53
rid:22 add input _25chan52
rid:23 add output _25chan55
rid:23 add input _25chan54
rid:24 add output _25chan25
rid:24 add input _25chan24
rid:25 add output _25chan27
rid:25 add input _25chan26
rid:26 add output _25chan29
rid:26 add input _25chan28
rid:27 add output _25chan31
rid:27 add input _25chan30
rid:28 add output _25chan57
rid:28 add input _25chan56
rid:29 add output _25chan59
rid:29 add input _25chan58
rid:30 add output _25chan61
rid:30 add input _25chan60
rid:31 add output _25chan63
rid:31 add input _25chan62
rid:32 add output _25chan65
rid:32 add input _25chan64
rid:33 add output _25chan67
rid:33 add input _25chan66
rid:34 add output _25chan69
rid:34 add input _25chan68
rid:35 add output _25chan71
rid:35 add input _25chan70
rid:36 add output _25chan97
rid:36 add input _25chan96
rid:37 add output _25chan99
rid:37 add input _25chan98
rid:38 add output _25chan101
rid:38 add input _25chan100
rid:39 add output _25chan103
rid:39 add input _25chan102
rid:40 add output _25chan73
rid:40 add input _25chan72
rid:41 add output _25chan75
rid:41 add input _25chan74
rid:42 add output _25chan77
rid:42 add input _25chan76
rid:43 add output _25chan79
rid:43 add input _25chan78
rid:44 add output _25chan105
rid:44 add input _25chan104
rid:45 add output _25chan107
rid:45 add input _25chan106
rid:46 add output _25chan109
rid:46 add input _25chan108
rid:47 add output _25chan111
rid:47 add input _25chan110
rid:48 add output _25chan81
rid:48 add input _25chan80
rid:49 add output _25chan83
rid:49 add input _25chan82
rid:50 add output _25chan85
rid:50 add input _25chan84
rid:51 add output _25chan87
rid:51 add input _25chan86
rid:52 add output _25chan113
rid:52 add input _25chan112
rid:53 add output _25chan115
rid:53 add input _25chan114
rid:54 add output _25chan117
rid:54 add input _25chan116
rid:55 add output _25chan119
rid:55 add input _25chan118
rid:56 add output _25chan89
rid:56 add input _25chan88
rid:57 add output _25chan91
rid:57 add input _25chan90
rid:58 add output _25chan93
rid:58 add input _25chan92
rid:59 add output _25chan95
rid:59 add input _25chan94
rid:60 add output _25chan121
rid:60 add input _25chan120
rid:61 add output _25chan123
rid:61 add input _25chan122
rid:62 add output _25chan125
rid:62 add input _25chan124
rid:63 add output _25chan127
rid:63 add input _25chan126
rid:0 add output _25chan0
rid:0 add input _25chan1
rid:1 add output _25chan2
rid:1 add input _25chan3
rid:2 add output _25chan4
rid:2 add input _25chan5
rid:3 add output _25chan6
rid:3 add input _25chan7
rid:4 add output _25chan8
rid:4 add input _25chan9
rid:5 add output _25chan10
rid:5 add input _25chan11
rid:6 add output _25chan12
rid:6 add input _25chan13
rid:7 add output _25chan14
rid:7 add input _25chan15
rid:8 add output _25chan16
rid:8 add input _25chan17
rid:9 add output _25chan18
rid:9 add input _25chan19
rid:10 add output _25chan20
rid:10 add input _25chan21
rid:11 add output _25chan22
rid:11 add input _25chan23
rid:12 add output _25chan24
rid:12 add input _25chan25
rid:13 add output _25chan26
rid:13 add input _25chan27
rid:14 add output _25chan28
rid:14 add input _25chan29
rid:15 add output _25chan30
rid:15 add input _25chan31
rid:0 add output _25chan32
rid:0 add input _25chan33
rid:1 add output _25chan34
rid:1 add input _25chan35
rid:2 add output _25chan36
rid:2 add input _25chan37
rid:3 add output _25chan38
rid:3 add input _25chan39
rid:4 add output _25chan40
rid:4 add input _25chan41
rid:5 add output _25chan42
rid:5 add input _25chan43
rid:6 add output _25chan44
rid:6 add input _25chan45
rid:7 add output _25chan46
rid:7 add input _25chan47
rid:8 add output _25chan48
rid:8 add input _25chan49
rid:9 add output _25chan50
rid:9 add input _25chan51
rid:10 add output _25chan52
rid:10 add input _25chan53
rid:11 add output _25chan54
rid:11 add input _25chan55
rid:12 add output _25chan56
rid:12 add input _25chan57
rid:13 add output _25chan58
rid:13 add input _25chan59
rid:14 add output _25chan60
rid:14 add input _25chan61
rid:15 add output _25chan62
rid:15 add input _25chan63
rid:0 add output _25chan64
rid:0 add input _25chan65
rid:1 add output _25chan66
rid:1 add input _25chan67
rid:2 add output _25chan68
rid:2 add input _25chan69
rid:3 add output _25chan70
rid:3 add input _25chan71
rid:4 add output _25chan72
rid:4 add input _25chan73
rid:5 add output _25chan74
rid:5 add input _25chan75
rid:6 add output _25chan76
rid:6 add input _25chan77
rid:7 add output _25chan78
rid:7 add input _25chan79
rid:8 add output _25chan80
rid:8 add input _25chan81
rid:9 add output _25chan82
rid:9 add input _25chan83
rid:10 add output _25chan84
rid:10 add input _25chan85
rid:11 add output _25chan86
rid:11 add input _25chan87
rid:12 add output _25chan88
rid:12 add input _25chan89
rid:13 add output _25chan90
rid:13 add input _25chan91
rid:14 add output _25chan92
rid:14 add input _25chan93
rid:15 add output _25chan94
rid:15 add input _25chan95
rid:0 add output _25chan96
rid:0 add input _25chan97
rid:1 add output _25chan98
rid:1 add input _25chan99
rid:2 add output _25chan100
rid:2 add input _25chan101
rid:3 add output _25chan102
rid:3 add input _25chan103
rid:4 add output _25chan104
rid:4 add input _25chan105
rid:5 add output _25chan106
rid:5 add input _25chan107
rid:6 add output _25chan108
rid:6 add input _25chan109
rid:7 add output _25chan110
rid:7 add input _25chan111
rid:8 add output _25chan112
rid:8 add input _25chan113
rid:9 add output _25chan114
rid:9 add input _25chan115
rid:10 add output _25chan116
rid:10 add input _25chan117
rid:11 add output _25chan118
rid:11 add input _25chan119
rid:12 add output _25chan120
rid:12 add input _25chan121
rid:13 add output _25chan122
rid:13 add input _25chan123
rid:14 add output _25chan124
rid:14 add input _25chan125
rid:15 add output _25chan126
rid:15 add input _25chan127
Warming up...

Tick: 0M
===== Time: 25000 =====
Class 0:
Packets read from trace = 135 of 20989170 (0%)
Future packets = 1
Waiting packets = 1
Stalled packets = 77
Packets pending injection = 0
Packets in flight = 1
Minimum packet latency = 102
Average packet latency = 644.309
Maximum packet latency = 924
Minimum network latency = 101
Average network latency = 637.636
Maximum network latency = 924
Slowest packet = 32
Minimum flit latency = 53
Average flit latency = 603.452
Maximum flit latency = 883
Slowest flit = 193
Minimum fragmentation = 0
Average fragmentation = 29.1818
Maximum fragmentation = 60
Minimum injected packet rate = 0 (at node 0)
Average injected packet rate = 1.75e-05
Maximum injected packet rate = 0.00084 (at node 66)
Minimum accepted packet rate = 0 (at node 0)
Average accepted packet rate = 1.71875e-05
Maximum accepted packet rate = 0.00068 (at node 66)
Minimum injected flit rate = 0 (at node 0)
Average injected flit rate = 0.0001075
Maximum injected flit rate = 0.005 (at node 66)
Minimum accepted flit rate = 0 (at node 0)
Average accepted flit rate = 0.000105
Maximum accepted flit rate = 0.00488 (at node 66)
Total number of injected packets = 56
Total number of injected flits = 344
Average injected packet length = 6.14286
Total number of accepted packets = 55
Total number of accepted flits = 336
Average accepted packet length = 6.10909
Total in-flight flits = 8 (0 measured)
Warmup ends after 25000 cycles.
Beginning measurements...
===== Time: 50000 =====
Class 0:
Packets read from trace = 262 of 20989170 (0%)
Future packets = 1
Waiting packets = 1
Stalled packets = 152
Packets pending injection = 1
Packets in flight = 1
Minimum packet latency = 361
Average packet latency = 640.22
Maximum packet latency = 919
Minimum network latency = 360
Average network latency = 632.92
Maximum network latency = 919
Slowest packet = 85
Minimum flit latency = 307
Average flit latency = 598.232
Maximum flit latency = 880
Slowest flit = 510
Minimum fragmentation = 0
Average fragmentation = 27.22
Maximum fragmentation = 60
Minimum injected packet rate = 0 (at node 0)
Average injected packet rate = 1.59375e-05
Maximum injected packet rate = 0.0008 (at node 66)
Minimum accepted packet rate = 0 (at node 0)
Average accepted packet rate = 1.59375e-05
Maximum accepted packet rate = 0.00076 (at node 66)
Minimum injected flit rate = 0 (at node 0)
Average injected flit rate = 9.28125e-05
Maximum injected flit rate = 0.00456 (at node 66)
Minimum accepted flit rate = 0 (at node 0)
Average accepted flit rate = 9.3125e-05
Maximum accepted flit rate = 0.00552 (at node 66)
Total number of injected packets = 51
Total number of injected flits = 297
Average injected packet length = 5.82353
Total number of accepted packets = 51
Total number of accepted flits = 298
Average accepted packet length = 5.84314
Total in-flight flits = 9 (9 measured)
===== Time: 75000 =====
Class 0:
Packets read from trace = 386 of 20989170 (0%)
Future packets = 1
Waiting packets = 0
Stalled packets = 226
Packets pending injection = 0
Packets in flight = 2
Minimum packet latency = 102
Average packet latency = 629.851
Maximum packet latency = 924
Minimum network latency = 101
Average network latency = 623.099
Maximum network latency = 924
Slowest packet = 140
Minimum flit latency = 53
Average flit latency = 583.514
Maximum flit latency = 883
Slowest flit = 821
Minimum fragmentation = 0
Average fragmentation = 27.0891
Maximum fragmentation = 60
Minimum injected packet rate = 0 (at node 0)
Average injected packet rate = 1.60938e-05
Maximum injected packet rate = 0.0008 (at node 66)
Minimum accepted packet rate = 0 (at node 0)
Average accepted packet rate = 1.59375e-05
Maximum accepted packet rate = 0.00076 (at node 66)
Minimum injected flit rate = 0 (at node 0)
Average injected flit rate = 9.35937e-05
Maximum injected flit rate = 0.00448 (at node 66)
Minimum accepted flit rate = 0 (at node 0)
Average accepted flit rate = 9.32812e-05
Maximum accepted flit rate = 0.00554 (at node 66)
Total number of injected packets = 103
Total number of injected flits = 599
Average injected packet length = 5.81553
Total number of accepted packets = 102
Total number of accepted flits = 597
Average accepted packet length = 5.85294
Total in-flight flits = 10 (10 measured)
===== Time: 100000 =====
Class 0:
Packets read from trace = 512 of 20989170 (0%)
Future packets = 1
Waiting packets = 0
Stalled packets = 299
Packets pending injection = 0
Packets in flight = 2
Minimum packet latency = 102
Average packet latency = 632.312
Maximum packet latency = 924
Minimum network latency = 101
Average network latency = 625.169
Maximum network latency = 924
Slowest packet = 140
Minimum flit latency = 53
Average flit latency = 586.38
Maximum flit latency = 883
Slowest flit = 821
Minimum fragmentation = 0
Average fragmentation = 27.3442
Maximum fragmentation = 60
Minimum injected packet rate = 0 (at node 0)
Average injected packet rate = 1.625e-05
Maximum injected packet rate = 0.000813333 (at node 66)
Minimum accepted packet rate = 0 (at node 0)
Average accepted packet rate = 1.61458e-05
Maximum accepted packet rate = 0.00072 (at node 66)
Minimum injected flit rate = 0 (at node 0)
Average injected flit rate = 9.54167e-05
Maximum injected flit rate = 0.00465333 (at node 66)
Minimum accepted flit rate = 0 (at node 0)
Average accepted flit rate = 9.52083e-05
Maximum accepted flit rate = 0.00518667 (at node 66)
Total number of injected packets = 156
Total number of injected flits = 916
Average injected packet length = 5.87179
Total number of accepted packets = 155
Total number of accepted flits = 914
Average accepted packet length = 5.89677
Total in-flight flits = 10 (10 measured)
===== Time: 125000 =====
Class 0:
Packets read from trace = 636 of 20989170 (0%)
Future packets = 1
Waiting packets = 0
Stalled packets = 371
Packets pending injection = 0
Packets in flight = 3
Minimum packet latency = 102
Average packet latency = 638.854
Maximum packet latency = 924
Minimum network latency = 101
Average network latency = 631.459
Maximum network latency = 924
Slowest packet = 140
Minimum flit latency = 53
Average flit latency = 595.854
Maximum flit latency = 883
Slowest flit = 821
Minimum fragmentation = 0
Average fragmentation = 27.7171
Maximum fragmentation = 105
Minimum injected packet rate = 0 (at node 0)
Average injected packet rate = 1.625e-05
Maximum injected packet rate = 0.00081 (at node 66)
Minimum accepted packet rate = 0 (at node 0)
Average accepted packet rate = 1.60938e-05
Maximum accepted packet rate = 0.00066 (at node 66)
Minimum injected flit rate = 0 (at node 0)
Average injected flit rate = 9.5625e-05
Maximum injected flit rate = 0.00465 (at node 66)
Minimum accepted flit rate = 0 (at node 0)
Average accepted flit rate = 9.50781e-05
Maximum accepted flit rate = 0.00465 (at node 66)
Total number of injected packets = 208
Total number of injected flits = 1224
Average injected packet length = 5.88462
Total number of accepted packets = 206
Total number of accepted flits = 1217
Average accepted packet length = 5.90777
Total in-flight flits = 15 (15 measured)
===== Time: 150000 =====
Class 0:
Packets read from trace = 754 of 20989170 (0%)
Future packets = 1
Waiting packets = 1
Stalled packets = 439
Packets pending injection = 0
Packets in flight = 2
Minimum packet latency = 102
Average packet latency = 645.816
Maximum packet latency = 924
Minimum network latency = 101
Average network latency = 638.224
Maximum network latency = 924
Slowest packet = 140
Minimum flit latency = 53
Average flit latency = 605.737
Maximum flit latency = 883
Slowest flit = 821
Minimum fragmentation = 0
Average fragmentation = 27.6196
Maximum fragmentation = 105
Minimum injected packet rate = 0 (at node 0)
Average injected packet rate = 1.60625e-05
Maximum injected packet rate = 0.000808 (at node 66)
Minimum accepted packet rate = 0 (at node 0)
Average accepted packet rate = 1.6e-05
Maximum accepted packet rate = 0.000624 (at node 66)
Minimum injected flit rate = 0 (at node 0)
Average injected flit rate = 9.40625e-05
Maximum injected flit rate = 0.004648 (at node 66)
Minimum accepted flit rate = 0 (at node 0)
Average accepted flit rate = 9.39375e-05
Maximum accepted flit rate = 0.004328 (at node 66)
Total number of injected packets = 257
Total number of injected flits = 1505
Average injected packet length = 5.85603
Total number of accepted packets = 256
Total number of accepted flits = 1503
Average accepted packet length = 5.87109
Total in-flight flits = 10 (10 measured)
===== Time: 175000 =====
Class 0:
Packets read from trace = 871 of 20989170 (0%)
Future packets = 1
Waiting packets = 0
Stalled packets = 505
Packets pending injection = 0
Packets in flight = 2
Minimum packet latency = 102
Average packet latency = 652.094
Maximum packet latency = 924
Minimum network latency = 101
Average network latency = 644.596
Maximum network latency = 924
Slowest packet = 140
Minimum flit latency = 53
Average flit latency = 615.491
Maximum flit latency = 883
Slowest flit = 821
Minimum fragmentation = 0
Average fragmentation = 27.6319
Maximum fragmentation = 105
Minimum injected packet rate = 0 (at node 0)
Average injected packet rate = 1.60938e-05
Maximum injected packet rate = 0.0008 (at node 66)
Minimum accepted packet rate = 0 (at node 0)
Average accepted packet rate = 1.60417e-05
Maximum accepted packet rate = 0.0006 (at node 66)
Minimum injected flit rate = 0 (at node 0)
Average injected flit rate = 9.44271e-05
Maximum injected flit rate = 0.00458667 (at node 66)
Minimum accepted flit rate = 0 (at node 0)
Average accepted flit rate = 9.43229e-05
Maximum accepted flit rate = 0.00411333 (at node 66)
Total number of injected packets = 309
Total number of injected flits = 1813
Average injected packet length = 5.86731
Total number of accepted packets = 308
Total number of accepted flits = 1811
Average accepted packet length = 5.87987
Total in-flight flits = 10 (10 measured)
===== Time: 200000 =====
Class 0:
Packets read from trace = 979 of 20989170 (0%)
Future packets = 1
Waiting packets = 0
Stalled packets = 571
Packets pending injection = 0
Packets in flight = 1
Minimum packet latency = 102
Average packet latency = 650.163
Maximum packet latency = 924
Minimum network latency = 101
Average network latency = 642.543
Maximum network latency = 924
Slowest packet = 140
Minimum flit latency = 53
Average flit latency = 612.889
Maximum flit latency = 883
Slowest flit = 821
Minimum fragmentation = 0
Average fragmentation = 27.1514
Maximum fragmentation = 105
Minimum injected packet rate = 0 (at node 0)
Average injected packet rate = 1.56696e-05
Maximum injected packet rate = 0.000788571 (at node 66)
Minimum accepted packet rate = 0 (at node 0)
Average accepted packet rate = 1.56696e-05
Maximum accepted packet rate = 0.000588571 (at node 66)
Minimum injected flit rate = 0 (at node 0)
Average injected flit rate = 9.06696e-05
Maximum injected flit rate = 0.00449143 (at node 66)
Minimum accepted flit rate = 0 (at node 0)
Average accepted flit rate = 9.09821e-05
Maximum accepted flit rate = 0.00401143 (at node 66)
Total number of injected packets = 351
Total number of injected flits = 2031
Average injected packet length = 5.78632
Total number of accepted packets = 351
Total number of accepted flits = 2038
Average accepted packet length = 5.80627
Total in-flight flits = 1 (1 measured)
===== Time: 225000 =====
Class 0:
Packets read from trace = 1096 of 20989170 (0%)
Future packets = 1
Waiting packets = 0
Stalled packets = 646
Packets pending injection = 0
Packets in flight = 1
Minimum packet latency = 102
Average packet latency = 648.63
Maximum packet latency = 924
Minimum network latency = 101
Average network latency = 641.276
Maximum network latency = 924
Slowest packet = 140
Minimum flit latency = 53
Average flit latency = 611.476
Maximum flit latency = 883
Slowest flit = 821
Minimum fragmentation = 0
Average fragmentation = 26.6913
Maximum fragmentation = 105
Minimum injected packet rate = 0 (at node 0)
Average injected packet rate = 1.53516e-05
Maximum injected packet rate = 0.000775 (at node 66)
Minimum accepted packet rate = 0 (at node 0)
Average accepted packet rate = 1.53516e-05
Maximum accepted packet rate = 0.000585 (at node 66)
Minimum injected flit rate = 0 (at node 0)
Average injected flit rate = 8.78516e-05
Maximum injected flit rate = 0.004375 (at node 66)
Minimum accepted flit rate = 0 (at node 0)
Average accepted flit rate = 8.8125e-05
Maximum accepted flit rate = 0.00398 (at node 66)
Total number of injected packets = 393
Total number of injected flits = 2249
Average injected packet length = 5.72265
Total number of accepted packets = 393
Total number of accepted flits = 2256
Average accepted packet length = 5.74046
Total in-flight flits = 1 (1 measured)
===== Time: 250000 =====
Class 0:
Packets read from trace = 1208 of 20989170 (0%)
Future packets = 1
Waiting packets = 0
Stalled packets = 713
Packets pending injection = 0
Packets in flight = 1
Minimum packet latency = 102
Average packet latency = 644.252
Maximum packet latency = 924
Minimum network latency = 101
Average network latency = 636.819
Maximum network latency = 924
Slowest packet = 140
Minimum flit latency = 53
Average flit latency = 604.75
Maximum flit latency = 883
Slowest flit = 821
Minimum fragmentation = 0
Average fragmentation = 26.4462
Maximum fragmentation = 105
Minimum injected packet rate = 0 (at node 0)
Average injected packet rate = 1.52083e-05
Maximum injected packet rate = 0.000773333 (at node 66)
Minimum accepted packet rate = 0 (at node 0)
Average accepted packet rate = 1.52083e-05
Maximum accepted packet rate = 0.000582222 (at node 66)
Minimum injected flit rate = 0 (at node 0)
Average injected flit rate = 8.65972e-05
Maximum injected flit rate = 0.00436444 (at node 66)
Minimum accepted flit rate = 0 (at node 0)
Average accepted flit rate = 8.68403e-05
Maximum accepted flit rate = 0.00395556 (at node 66)
Total number of injected packets = 438
Total number of injected flits = 2494
Average injected packet length = 5.69406
Total number of accepted packets = 438
Total number of accepted flits = 2501
Average accepted packet length = 5.71005
Total in-flight flits = 1 (1 measured)
===== Time: 275000 =====
Class 0:
Packets read from trace = 1238 of 20989170 (0%)
Future packets = 1
Waiting packets = 0
Stalled packets = 703
Packets pending injection = 0
Packets in flight = 1
Minimum packet latency = 102
Average packet latency = 642.683
Maximum packet latency = 924
Minimum network latency = 101
Average network latency = 634.981
Maximum network latency = 924
Slowest packet = 140
Minimum flit latency = 53
Average flit latency = 601.545
Maximum flit latency = 883
Slowest flit = 821
Minimum fragmentation = 0
Average fragmentation = 26.1153
Maximum fragmentation = 105
Minimum injected packet rate = 0 (at node 0)
Average injected packet rate = 1.49375e-05
Maximum injected packet rate = 0.000764 (at node 66)
Minimum accepted packet rate = 0 (at node 0)
Average accepted packet rate = 1.49375e-05
Maximum accepted packet rate = 0.00056 (at node 66)
Minimum injected flit rate = 0 (at node 0)
Average injected flit rate = 8.41875e-05
Maximum injected flit rate = 0.004284 (at node 66)
Minimum accepted flit rate = 0 (at node 0)
Average accepted flit rate = 8.44062e-05
Maximum accepted flit rate = 0.003852 (at node 66)
Total number of injected packets = 478
Total number of injected flits = 2694
Average injected packet length = 5.63598
Total number of accepted packets = 478
Total number of accepted flits = 2701
Average accepted packet length = 5.65063
Total in-flight flits = 1 (1 measured)
===== Time: 300000 =====
Class 0:
Packets read from trace = 1252 of 20989170 (0%)
Future packets = 1
Waiting packets = 1
Stalled packets = 676
Packets pending injection = 0
Packets in flight = 0
Minimum packet latency = 102
Average packet latency = 638.664
Maximum packet latency = 924
Minimum network latency = 101
Average network latency = 630.722
Maximum network latency = 924
Slowest packet = 140
Minimum flit latency = 53
Average flit latency = 599.436
Maximum flit latency = 883
Slowest flit = 821
Minimum fragmentation = 0
Average fragmentation = 25.7278
Maximum fragmentation = 105
Minimum injected packet rate = 0 (at node 0)
Average injected packet rate = 1.47159e-05
Maximum injected packet rate = 0.000749091 (at node 66)
Minimum accepted packet rate = 0 (at node 0)
Average accepted packet rate = 1.47443e-05
Maximum accepted packet rate = 0.000538182 (at node 66)
Minimum injected flit rate = 0 (at node 0)
Average injected flit rate = 8.19886e-05
Maximum injected flit rate = 0.00415273 (at node 66)
Minimum accepted flit rate = 0 (at node 0)
Average accepted flit rate = 8.22159e-05
Maximum accepted flit rate = 0.00376364 (at node 66)
Total number of injected packets = 518
Total number of injected flits = 2886
Average injected packet length = 5.57143
Total number of accepted packets = 519
Total number of accepted flits = 2894
Average accepted packet length = 5.57611
Total in-flight flits = 0 (0 measured)
===== Time: 325000 =====
Class 0:
Packets read from trace = 1280 of 20989170 (0%)
Future packets = 1
Waiting packets = 0
Stalled packets = 661
Packets pending injection = 0
Packets in flight = 1
Minimum packet latency = 102
Average packet latency = 635.417
Maximum packet latency = 924
Minimum network latency = 101
Average network latency = 627.392
Maximum network latency = 924
Slowest packet = 140
Minimum flit latency = 53
Average flit latency = 598.294
Maximum flit latency = 883
Slowest flit = 821
Minimum fragmentation = 0
Average fragmentation = 25.5205
Maximum fragmentation = 105
Minimum injected packet rate = 0 (at node 0)
Average injected packet rate = 1.46354e-05
Maximum injected packet rate = 0.000736667 (at node 66)
Minimum accepted packet rate = 0 (at node 0)
Average accepted packet rate = 1.46354e-05
Maximum accepted packet rate = 0.00052 (at node 66)
Minimum injected flit rate = 0 (at node 0)
Average injected flit rate = 8.10938e-05
Maximum injected flit rate = 0.00404333 (at node 66)
Minimum accepted flit rate = 0 (at node 0)
Average accepted flit rate = 8.10677e-05
Maximum accepted flit rate = 0.00369 (at node 66)
Total number of injected packets = 562
Total number of injected flits = 3114
Average injected packet length = 5.54093
Total number of accepted packets = 562
Total number of accepted flits = 3113
Average accepted packet length = 5.53915
Total in-flight flits = 9 (9 measured)
Completed measurements after 325000 cycles.
Draining remaining packets ...
Time taken is 325517 cycles
====== Traffic class 0 ======

Total number of flits generated = 3458, changed lanes = 0
Overall minimum packet latency = 102 (1 samples)
Overall average packet latency = 635.687 (1 samples)
Overall maximum packet latency = 924 (1 samples)
Overall minimum network latency = 101 (1 samples)
Overall average network latency = 627.676 (1 samples)
Overall maximum network latency = 924 (1 samples)
Overall minimum flit latency = 53 (1 samples)
Overall average flit latency = 598.718 (1 samples)
Overall maximum flit latency = 883 (1 samples)
Overall minimum fragmentation = 0 (1 samples)
Overall average fragmentation = 25.5552 (1 samples)
Overall maximum fragmentation = 105 (1 samples)
Overall minimum injected packet rate = 0 (1 samples)
Overall average injected packet rate = 1.46354e-05 (1 samples)
Overall maximum injected packet rate = 0.000736667 (1 samples)
Overall minimum accepted packet rate = 0 (1 samples)
Overall average accepted packet rate = 1.46354e-05 (1 samples)
Overall maximum accepted packet rate = 0.00052 (1 samples)
Overall minimum injected flit rate = 0 (1 samples)
Overall average injected flit rate = 8.10938e-05 (1 samples)
Overall maximum injected flit rate = 0.00404333 (1 samples)
Overall minimum accepted flit rate = 0 (1 samples)
Overall average accepted flit rate = 8.10677e-05 (1 samples)
Overall maximum accepted flit rate = 0.00369 (1 samples)
Overall average injected packet size = 5.54093 (1 samples)
Overall average accepted packet size = 5.53915 (1 samples)
Overall average hops = 9.74911 (1 samples)
Overall throughput of the network (flits/cycle) = 0.0115267
Overall throughput of the network (packets/cycle) = 0.00206
CSV Result Header , avgFLat,avgFInjRate
CSV Result ,598.718,1.46354e-05
Overall workload runtime = 300000 (1 samples)

The distribution of the source packets of size 1 is: 

Source [0] = 0
Source [1] = 0
Source [2] = 105
Source [3] = 0
Source [4] = 0
Source [5] = 0
Source [6] = 0
Source [7] = 0
Source [8] = 0
Source [9] = 0
Source [10] = 0
Source [11] = 0
Source [12] = 0
Source [13] = 0
Source [14] = 0
Source [15] = 0
Source [16] = 0
Source [17] = 0
Source [18] = 0
Source [19] = 0
Source [20] = 0
Source [21] = 0
Source [22] = 0
Source [23] = 0
Source [24] = 0
Source [25] = 0
Source [26] = 0
Source [27] = 0
Source [28] = 0
Source [29] = 0
Source [30] = 0
Source [31] = 0
Source [32] = 0
Source [33] = 0
Source [34] = 0
Source [35] = 0
Source [36] = 0
Source [37] = 0
Source [38] = 44
Source [39] = 9
Source [40] = 41
Source [41] = 11
Source [42] = 0
Source [43] = 0
Source [44] = 0
Source [45] = 0
Source [46] = 0
Source [47] = 0
Source [48] = 0
Source [49] = 0
Source [50] = 0
Source [51] = 0
Source [52] = 0
Source [53] = 0
Source [54] = 0
Source [55] = 0
Source [56] = 0
Source [57] = 0
Source [58] = 44
Source [59] = 0
Source [60] = 0
Source [61] = 9
Source [62] = 0
Source [63] = 0
The distribution of the source packets of size 9 is: 

Source [0] = 0
Source [1] = 1
Source [2] = 137
Source [3] = 4
Source [4] = 6
Source [5] = 15
Source [6] = 14
Source [7] = 4
Source [8] = 0
Source [9] = 1
Source [10] = 1
Source [11] = 0
Source [12] = 0
Source [13] = 0
Source [14] = 0
Source [15] = 0
Source [16] = 0
Source [17] = 1
Source [18] = 0
Source [19] = 0
Source [20] = 0
Source [21] = 2
Source [22] = 1
Source [23] = 1
Source [24] = 0
Source [25] = 1
Source [26] = 0
Source [27] = 0
Source [28] = 0
Source [29] = 1
Source [30] = 0
Source [31] = 0
Source [32] = 1
Source [33] = 0
Source [34] = 0
Source [35] = 0
Source [36] = 0
Source [37] = 0
Source [38] = 45
Source [39] = 9
Source [40] = 58
Source [41] = 32
Source [42] = 0
Source [43] = 0
Source [44] = 1
Source [45] = 1
Source [46] = 0
Source [47] = 0
Source [48] = 1
Source [49] = 3
Source [50] = 0
Source [51] = 3
Source [52] = 1
Source [53] = 0
Source [54] = 7
Source [55] = 0
Source [56] = 0
Source [57] = 2
Source [58] = 0
Source [59] = 1
Source [60] = 0
Source [61] = 0
Source [62] = 0
Source [63] = 0
The distribution of the dest packets of size 1 is: 

dest [0] = 0
dest [1] = 0
dest [2] = 41
dest [3] = 0
dest [4] = 0
dest [5] = 11
dest [6] = 0
dest [7] = 0
dest [8] = 0
dest [9] = 0
dest [10] = 0
dest [11] = 0
dest [12] = 0
dest [13] = 0
dest [14] = 0
dest [15] = 0
dest [16] = 0
dest [17] = 0
dest [18] = 0
dest [19] = 0
dest [20] = 0
dest [21] = 0
dest [22] = 0
dest [23] = 0
dest [24] = 0
dest [25] = 0
dest [26] = 0
dest [27] = 0
dest [28] = 0
dest [29] = 0
dest [30] = 0
dest [31] = 0
dest [32] = 0
dest [33] = 0
dest [34] = 0
dest [35] = 0
dest [36] = 0
dest [37] = 0
dest [38] = 88
dest [39] = 18
dest [40] = 41
dest [41] = 11
dest [42] = 0
dest [43] = 0
dest [44] = 0
dest [45] = 0
dest [46] = 0
dest [47] = 0
dest [48] = 0
dest [49] = 0
dest [50] = 0
dest [51] = 0
dest [52] = 0
dest [53] = 0
dest [54] = 0
dest [55] = 0
dest [56] = 0
dest [57] = 0
dest [58] = 44
dest [59] = 0
dest [60] = 0
dest [61] = 9
dest [62] = 0
dest [63] = 0
The distribution of the dest packets of size 9 is: 

dest [0] = 0
dest [1] = 1
dest [2] = 133
dest [3] = 3
dest [4] = 15
dest [5] = 35
dest [6] = 19
dest [7] = 6
dest [8] = 2
dest [9] = 0
dest [10] = 1
dest [11] = 0
dest [12] = 0
dest [13] = 0
dest [14] = 3
dest [15] = 1
dest [16] = 5
dest [17] = 0
dest [18] = 0
dest [19] = 0
dest [20] = 0
dest [21] = 0
dest [22] = 1
dest [23] = 8
dest [24] = 2
dest [25] = 0
dest [26] = 0
dest [27] = 0
dest [28] = 1
dest [29] = 0
dest [30] = 0
dest [31] = 0
dest [32] = 4
dest [33] = 0
dest [34] = 0
dest [35] = 0
dest [36] = 0
dest [37] = 0
dest [38] = 3
dest [39] = 0
dest [40] = 50
dest [41] = 12
dest [42] = 0
dest [43] = 0
dest [44] = 0
dest [45] = 0
dest [46] = 1
dest [47] = 8
dest [48] = 2
dest [49] = 0
dest [50] = 0
dest [51] = 0
dest [52] = 4
dest [53] = 0
dest [54] = 4
dest [55] = 0
dest [56] = 0
dest [57] = 0
dest [58] = 26
dest [59] = 0
dest [60] = 0
dest [61] = 5
dest [62] = 0
dest [63] = 0
Power Report Header, Frequency, Time, StaticIQ, DynamicIQ, StaticVC, DynamicVC, StaticSA, DynamicSA, StaticST, DynamicST, StaticLink, DynamicLink, NoFlits, ePerFlit
Power Report,3.9e+08,325517,0.131875,0.000404206,0.00749762,2.2029e-06,0.00224928,2.53086e-06,0.477597,0.000115689,0.0905466,0.000285632,3458,1.71512e-07

*****************************************
Total run time 62.4832
generate:0x7fffce27f960
delete:0x7fffce27f960
L = 2 K = 8.1 M = 2 N = 1
-----------------------------------------
- OCN Power Summary
- Completion Time:         325517
- Flit Widths:            64
- Channel Wire Power:      0.0384791
- Channel Clock Power:     1.46183
- Channel Retiming Power:  0.000478082
- Channel Leakage Power:   0.551082
- Input Read Power:        0.00117035
- Input Write Power:       0.00117035
- Input Leakage Power:     0.113246
- Switch Power:            0.00255578
- Switch Control Power:    0.00131398
- Switch Leakage Power:    0.771052
- Output DFF Power:        0.000272771
- Output Clk Power:        0.727126
- Output Control Power:    0.000140772
- Total Power:             3.66991
-----------------------------------------

-----------------------------------------
- OCN Area Summary
- Channel Area:  0.109536
- Switch  Area:  0.241592
- Input  Area:   0.120796
- Output  Area:  0.0201327
- Total Area:    0.492056
-----------------------------------------
CSV Power Result Header , Completion Time, Channel Wire, Channel Clock, Channel Retiming, Channel Leakage, Input Read, Input Write, Input Leakage, Switch Power, Switch Control, Switch Leakage, Output DFF, Output Clk, Output Control
CSV Power Result , 325517, 0.0384791, 1.46183, 0.000478082, 0.551082, 0.00117035, 0.00117035, 0.113246, 0.00255578, 0.00131398, 0.771052, 0.000272771, 0.727126, 0.000140772
delete:0x7fffce27f960
delete:0x7fffce27f960
delete:0x7fffce27f960
delete:0x7fffce27f960
delete:0x7fffce27f960
delete:0x7fffce27f960
