generate:0x7ffc4d5818a0
generate:0x7ffc4d581958
generate:0x7ffc4d581a10
generate:0x7ffc4d581ac8
generate:0x7ffc4d581b80
generate:0x7ffc4d581cf0
BEGIN Configuration File: interposer5
//topology
topology = mesh;
k = 8;
n = 2;
type = interposer;
// Routing
routing_function = dor;

// Flow control
num_vcs     = 2;
vc_buf_size = 8;
wait_for_tail_credit = 1;
hold_switch_for_packet = 1;

// Router architecture
vc_allocator = islip;
sw_allocator = islip;
alloc_iters  = 1;

credit_delay   = 0;
routing_delay  = 1;
vc_alloc_delay = 1;
sw_alloc_delay = 1;
st_final_delay = 1;

input_speedup     = 1;
output_speedup    = 1;
internal_speedup  = 1.0;
vc_busy_when_full = 0;


//granulaity
latency_thres=20000.0;
deadlock_warn_timeout=20000;
traceStretch=3;

//gating
doGating=0;
sleepThreshold=40;
breakEvenThreshold=80;



//Syn Traffic
//sim_type=latency;
//traffic=uniform;
//packet_size = 1;
//sample_period=2500;
//warmup_periods=1;
//max_samples=10;
//injection_rate=0.0001;

sim_type = workload;
traffic=uniform;

workload=netrace({/home/yuri/Documents/blackscholes_64c_simmedium.tra.bz2,100000000,1,2,1,1,0);
//packet_size = 1;
sample_period=25000;
warmup_periods=1;
max_samples=12;
//injection_rate=0.0001;

creditDelays=creditDelays({0,0,0,0,0,0,0,0,0,0,0,0,0,0,0,0,0,0,0,0,0,0,0,0,0,0,0,0,0,0,0,0,0,0,0,0,0,0,0,0,0,0,0,0,0,0,0,0,0,0,0,0,0,0,0,0,0,0,0,0,0,0,0,0}});
routingDelays=routingDelays({15,15,15,15,15,15,15,15,15,15,15,15,15,15,15,15,15,15,15,15,15,15,15,15,15,15,15,15,15,15,15,15,15,15,15,15,15,15,15,15,15,15,15,15,15,15,15,15,15,15,15,15,15,15,15,15,15,15,15,15,15,15,15,15});
vcAllocDelays=vcAllocDelays({15,15,15,15,15,15,15,15,15,15,15,15,15,15,15,15,15,15,15,15,15,15,15,15,15,15,15,15,15,15,15,15,15,15,15,15,15,15,15,15,15,15,15,15,15,15,15,15,15,15,15,15,15,15,15,15,15,15,15,15,15,15,15,15});
swAllocDelays=swAllocDelays({15,15,15,15,15,15,15,15,15,15,15,15,15,15,15,15,15,15,15,15,15,15,15,15,15,15,15,15,15,15,15,15,15,15,15,15,15,15,15,15,15,15,15,15,15,15,15,15,15,15,15,15,15,15,15,15,15,15,15,15,15,15,15,15});
stFinalDelays=stFinalDelays({15,15,15,15,15,15,15,15,15,15,15,15,15,15,15,15,15,15,15,15,15,15,15,15,15,15,15,15,15,15,15,15,15,15,15,15,15,15,15,15,15,15,15,15,15,15,15,15,15,15,15,15,15,15,15,15,15,15,15,15,15,15,15,15});

isAsync=isAsync({0,0,0,0,0,0,0,0,0,0,0,0,0,0,0,0,0,0,0,0,0,0,0,0,0,0,0,0,0,0,0,0,0,0,0,0,0,0,0,0,0,0,0,0,0,0,0,0,0,0,0,0,0,0,0,0,0,0,0,0,0,0,0,0});
isMetaUnstable=isMetaUnstable({0,0,0,0,0,0,0,0,0,0,0,0,0,0,0,0,0,0,0,0,0,0,0,0,0,0,0,0,0,0,0,0,0,0,0,0,0,0,0,0,0,0,0,0,0,0,0,0,0,0,0,0,0,0,0,0,0,0,0,0,0,0,0,0});

creditDelayStdDevs=creditDelayStdDevs({0,0,0,0,0,0,0,0,0,0,0,0,0,0,0,0,0,0,0,0,0,0,0,0,0,0,0,0,0,0,0,0,0,0,0,0,0,0,0,0,0,0,0,0,0,0,0,0,0,0,0,0,0,0,0,0,0,0,0,0,0,0,0,0});
routingDelayStdDevs=routingDelayStdDevs({0,0,0,0,0,0,0,0,0,0,0,0,0,0,0,0,0,0,0,0,0,0,0,0,0,0,0,0,0,0,0,0,0,0,0,0,0,0,0,0,0,0,0,0,0,0,0,0,0,0,0,0,0,0,0,0,0,0,0,0,0,0,0,0});
vcAllocDelayStdDevs=vcAllocDelayStdDevs({0,0,0,0,0,0,0,0,0,0,0,0,0,0,0,0,0,0,0,0,0,0,0,0,0,0,0,0,0,0,0,0,0,0,0,0,0,0,0,0,0,0,0,0,0,0,0,0,0,0,0,0,0,0,0,0,0,0,0,0,0,0,0,0});
swAllocDelayStdDevs=swAllocDelayStdDevs({0,0,0,0,0,0,0,0,0,0,0,0,0,0,0,0,0,0,0,0,0,0,0,0,0,0,0,0,0,0,0,0,0,0,0,0,0,0,0,0,0,0,0,0,0,0,0,0,0,0,0,0,0,0,0,0,0,0,0,0,0,0,0,0});
stFinalDelayStdDevs=stFinalDelayStdDevs({0,0,0,0,0,0,0,0,0,0,0,0,0,0,0,0,0,0,0,0,0,0,0,0,0,0,0,0,0,0,0,0,0,0,0,0,0,0,0,0,0,0,0,0,0,0,0,0,0,0,0,0,0,0,0,0,0,0,0,0,0,0,0,0});

  
swAllocThresholds=swAllocThresholds({1,1,1,1,1,1,1,1,1,1,1,1,1,1,1,1,1,1,1,1,1,1,1,1,1,1,1,1,1,1,1,1,1,1,1,1,1,1,1,1,1,1,1,1,1,1,1,1,1,1,1,1,1,1,1,1,1,1,1,1,1,1,1,1});
swAllocThresholdStdDevs=swAllocThresholdStdDevs({0,0,0,0,0,0,0,0,0,0,0,0,0,0,0,0,0,0,0,0,0,0,0,0,0,0,0,0,0,0,0,0,0,0,0,0,0,0,0,0,0,0,0,0,0,0,0,0,0,0,0,0,0,0,0,0,0,0,0,0,0,0,0,0});
swAllocMetaStableThresholds=swAllocMetaStableThresholds({1,1,1,1,1,1,1,1,1,1,1,1,1,1,1,1,1,1,1,1,1,1,1,1,1,1,1,1,1,1,1,1,1,1,1,1,1,1,1,1,1,1,1,1,1,1,1,1,1,1,1,1,1,1,1,1,1,1,1,1,1,1,1,1});
swAllocMetaStableMaxPenalities=swAllocMetaStableMaxPenalities({0,0,0,0,0,0,0,0,0,0,0,0,0,0,0,0,0,0,0,0,0,0,0,0,0,0,0,0,0,0,0,0,0,0,0,0,0,0,0,0,0,0,0,0,0,0,0,0,0,0,0,0,0,0,0,0,0,0,0,0,0,0,0,0});

END Configuration File: interposer5
BEGIN Configuration File: chip1_1
//topology
topology = mesh;
k = 4;
n = 2;
type = chip;
start_point = 0;
cnum=1;
// Routing
routing_function = dor;

// Flow control
num_vcs     = 2;
vc_buf_size = 8;
wait_for_tail_credit = 1;
hold_switch_for_packet = 1;

// Router architecture
vc_allocator = islip;
sw_allocator = islip;
alloc_iters  = 1;

credit_delay   = 1;
routing_delay  = 1;
vc_alloc_delay = 1;
sw_alloc_delay = 1;
st_final_delay = 1;

input_speedup     = 1;
output_speedup    = 1;
internal_speedup  = 1.0;
vc_busy_when_full = 0;


//granulaity
latency_thres=20000.0;
deadlock_warn_timeout=20000;
traceStretch=3;

//gating
doGating=0;
sleepThreshold=40;
breakEvenThreshold=80;



//Syn Traffic
sim_type=latency;
traffic=uniform;
packet_size = 1;
sample_period=50000;
warmup_periods=1;
max_samples=12;
injection_rate=0.01;

//creditDelays=creditDelays({0,0,0,0,0,0,0,0,0,0,0,0,0,0,0,0});
//routingDelays=routingDelays({1,1,1,1,1,1,1,1,1,1,1,1,1,1,1,1});
//vcAllocDelays=vcAllocDelays({1,1,1,1,1,1,1,1,1,1,1,1,1,1,1,1});
//swAllocDelays=swAllocDelays({1,1,1,1,1,1,1,1,1,1,1,1,1,1,1,1});
//stFinalDelays=stFinalDelays({1,1,1,1,1,1,1,1,1,1,1,1,1,1,1,1});
//channelDelays=channelDelays({1,1,1,1,1,1,1,1,1,1,1,1,1,1,1,1});

creditDelays=creditDelays({0,0,0,0,0,0,0,0,0,0,0,0,0,0,0,0,0,0,0,0,0,0,0,0,0,0,0,0,0,0,0,0,0,0,0,0,0,0,0,0,0,0,0,0,0,0,0,0,0,0,0,0,0,0,0,0,0,0,0,0,0,0,0,0}});
routingDelays=routingDelays({15,15,15,15,15,15,15,15,15,15,15,15,15,15,15,15,15,15,15,15,15,15,15,15,15,15,15,15,15,15,15,15,15,15,15,15,15,15,15,15,15,15,15,15,15,15,15,15,15,15,15,15,15,15,15,15,15,15,15,15,15,15,15,15});
vcAllocDelays=vcAllocDelays({15,15,15,15,15,15,15,15,15,15,15,15,15,15,15,15,15,15,15,15,15,15,15,15,15,15,15,15,15,15,15,15,15,15,15,15,15,15,15,15,15,15,15,15,15,15,15,15,15,15,15,15,15,15,15,15,15,15,15,15,15,15,15,15});
swAllocDelays=swAllocDelays({15,15,15,15,15,15,15,15,15,15,15,15,15,15,15,15,15,15,15,15,15,15,15,15,15,15,15,15,15,15,15,15,15,15,15,15,15,15,15,15,15,15,15,15,15,15,15,15,15,15,15,15,15,15,15,15,15,15,15,15,15,15,15,15});
stFinalDelays=stFinalDelays({15,15,15,15,15,15,15,15,15,15,15,15,15,15,15,15,15,15,15,15,15,15,15,15,15,15,15,15,15,15,15,15,15,15,15,15,15,15,15,15,15,15,15,15,15,15,15,15,15,15,15,15,15,15,15,15,15,15,15,15,15,15,15,15});


isAsync=isAsync({1,1,1,1,1,1,1,1,1,1,1,1,1,1,1,1});
isMetaUnstable=isMetaUnstable({0,0,0,0,0,0,0,0,0,0,0,0,0,0,0,0});

creditDelayStdDevs=creditDelayStdDevs({0,0,0,0,0,0,0,0,0,0,0,0,0,0,0,0});
routingDelayStdDevs=routingDelayStdDevs({0,0,0,0,0,0,0,0,0,0,0,0,0,0,0,0});
vcAllocDelayStdDevs=vcAllocDelayStdDevs({0,0,0,0,0,0,0,0,0,0,0,0,0,0,0,0});
swAllocDelayStdDevs=swAllocDelayStdDevs({0,0,0,0,0,0,0,0,0,0,0,0,0,0,0,0});
stFinalDelayStdDevs=stFinalDelayStdDevs({0,0,0,0,0,0,0,0,0,0,0,0,0,0,0,0});

  
swAllocThresholds=swAllocThresholds({1,1,1,1,1,1,1,1,1,1,1,1,1,1,1,1});
swAllocThresholdStdDevs=swAllocThresholdStdDevs({0,0,0,0,0,0,0,0,0,0,0,0,0,0,0,0});
swAllocMetaStableThresholds=swAllocMetaStableThresholds({1,1,1,1,1,1,1,1,1,1,1,1,1,1,1,1});
swAllocMetaStableMaxPenalities=swAllocMetaStableMaxPenalities({0,0,0,0,0,0,0,0,0,0,0,0,0,0,0,0});

END Configuration File: chip1_1
BEGIN Configuration File: chip2_1
//topology
topology = mesh;
k = 4;
n = 2;
type = chip;
//start_point = 2;
start_point = 4;
cnum = 2;
// Routing
routing_function = dor;

// Flow control
num_vcs     = 2;
vc_buf_size = 8;
wait_for_tail_credit = 1;
hold_switch_for_packet = 1;

// Router architecture
vc_allocator = islip;
sw_allocator = islip;
alloc_iters  = 1;

credit_delay   = 1;
routing_delay  = 1;
vc_alloc_delay = 1;
sw_alloc_delay = 1;
st_final_delay = 1;

input_speedup     = 1;
output_speedup    = 1;
internal_speedup  = 1.0;
vc_busy_when_full = 0;


//granulaity
latency_thres=20000.0;
deadlock_warn_timeout=20000;
traceStretch=3;

//gating
doGating=0;
sleepThreshold=40;
breakEvenThreshold=80;



//Syn Traffic
sim_type=latency;
traffic=uniform;
packet_size = 1;
sample_period=50000;
warmup_periods=3;
max_samples=14;
injection_rate=0.01;

creditDelays=creditDelays({0,0,0,0,0,0,0,0,0,0,0,0,0,0,0,0,0,0,0,0,0,0,0,0,0,0,0,0,0,0,0,0,0,0,0,0,0,0,0,0,0,0,0,0,0,0,0,0,0,0,0,0,0,0,0,0,0,0,0,0,0,0,0,0}});
routingDelays=routingDelays({15,15,15,15,15,15,15,15,15,15,15,15,15,15,15,15,15,15,15,15,15,15,15,15,15,15,15,15,15,15,15,15,15,15,15,15,15,15,15,15,15,15,15,15,15,15,15,15,15,15,15,15,15,15,15,15,15,15,15,15,15,15,15,15});
vcAllocDelays=vcAllocDelays({15,15,15,15,15,15,15,15,15,15,15,15,15,15,15,15,15,15,15,15,15,15,15,15,15,15,15,15,15,15,15,15,15,15,15,15,15,15,15,15,15,15,15,15,15,15,15,15,15,15,15,15,15,15,15,15,15,15,15,15,15,15,15,15});
swAllocDelays=swAllocDelays({15,15,15,15,15,15,15,15,15,15,15,15,15,15,15,15,15,15,15,15,15,15,15,15,15,15,15,15,15,15,15,15,15,15,15,15,15,15,15,15,15,15,15,15,15,15,15,15,15,15,15,15,15,15,15,15,15,15,15,15,15,15,15,15});
stFinalDelays=stFinalDelays({15,15,15,15,15,15,15,15,15,15,15,15,15,15,15,15,15,15,15,15,15,15,15,15,15,15,15,15,15,15,15,15,15,15,15,15,15,15,15,15,15,15,15,15,15,15,15,15,15,15,15,15,15,15,15,15,15,15,15,15,15,15,15,15});


isAsync=isAsync({1,1,1,1,1,1,1,1,1,1,1,1,1,1,1,1});
isMetaUnstable=isMetaUnstable({0,0,0,0,0,0,0,0,0,0,0,0,0,0,0,0});

creditDelayStdDevs=creditDelayStdDevs({0,0,0,0,0,0,0,0,0,0,0,0,0,0,0,0});
routingDelayStdDevs=routingDelayStdDevs({0,0,0,0,0,0,0,0,0,0,0,0,0,0,0,0});
vcAllocDelayStdDevs=vcAllocDelayStdDevs({0,0,0,0,0,0,0,0,0,0,0,0,0,0,0,0});
swAllocDelayStdDevs=swAllocDelayStdDevs({0,0,0,0,0,0,0,0,0,0,0,0,0,0,0,0});
stFinalDelayStdDevs=stFinalDelayStdDevs({0,0,0,0,0,0,0,0,0,0,0,0,0,0,0,0});

  
swAllocThresholds=swAllocThresholds({1,1,1,1,1,1,1,1,1,1,1,1,1,1,1,1});
swAllocThresholdStdDevs=swAllocThresholdStdDevs({0,0,0,0,0,0,0,0,0,0,0,0,0,0,0,0});
swAllocMetaStableThresholds=swAllocMetaStableThresholds({1,1,1,1,1,1,1,1,1,1,1,1,1,1,1,1});
swAllocMetaStableMaxPenalities=swAllocMetaStableMaxPenalities({0,0,0,0,0,0,0,0,0,0,0,0,0,0,0,0});

END Configuration File: chip2_1
BEGIN Configuration File: chip3_1
//topology
topology = mesh;
k = 4;
n = 2;
type = chip;
//start_point = 8;
start_point = 32;
cnum = 3;
// Routing
routing_function = dor;

// Flow control
num_vcs     = 2;
vc_buf_size = 8;
wait_for_tail_credit = 1;
hold_switch_for_packet = 1;

// Router architecture
vc_allocator = islip;
sw_allocator = islip;
alloc_iters  = 1;

credit_delay   = 1;
routing_delay  = 1;
vc_alloc_delay = 1;
sw_alloc_delay = 1;
st_final_delay = 1;

input_speedup     = 1;
output_speedup    = 1;
internal_speedup  = 1.0;
vc_busy_when_full = 0;


//granulaity
latency_thres=20000.0;
deadlock_warn_timeout=20000;
traceStretch=3;

//gating
doGating=0;
sleepThreshold=40;
breakEvenThreshold=80;



//Syn Traffic
sim_type=latency;
traffic=uniform;
packet_size = 1;
sample_period=50000;
warmup_periods=3;
max_samples=14;
injection_rate=0.01;

creditDelays=creditDelays({0,0,0,0,0,0,0,0,0,0,0,0,0,0,0,0,0,0,0,0,0,0,0,0,0,0,0,0,0,0,0,0,0,0,0,0,0,0,0,0,0,0,0,0,0,0,0,0,0,0,0,0,0,0,0,0,0,0,0,0,0,0,0,0}});
routingDelays=routingDelays({15,15,15,15,15,15,15,15,15,15,15,15,15,15,15,15,15,15,15,15,15,15,15,15,15,15,15,15,15,15,15,15,15,15,15,15,15,15,15,15,15,15,15,15,15,15,15,15,15,15,15,15,15,15,15,15,15,15,15,15,15,15,15,15});
vcAllocDelays=vcAllocDelays({15,15,15,15,15,15,15,15,15,15,15,15,15,15,15,15,15,15,15,15,15,15,15,15,15,15,15,15,15,15,15,15,15,15,15,15,15,15,15,15,15,15,15,15,15,15,15,15,15,15,15,15,15,15,15,15,15,15,15,15,15,15,15,15});
swAllocDelays=swAllocDelays({15,15,15,15,15,15,15,15,15,15,15,15,15,15,15,15,15,15,15,15,15,15,15,15,15,15,15,15,15,15,15,15,15,15,15,15,15,15,15,15,15,15,15,15,15,15,15,15,15,15,15,15,15,15,15,15,15,15,15,15,15,15,15,15});
stFinalDelays=stFinalDelays({15,15,15,15,15,15,15,15,15,15,15,15,15,15,15,15,15,15,15,15,15,15,15,15,15,15,15,15,15,15,15,15,15,15,15,15,15,15,15,15,15,15,15,15,15,15,15,15,15,15,15,15,15,15,15,15,15,15,15,15,15,15,15,15});


isAsync=isAsync({1,1,1,1,1,1,1,1,1,1,1,1,1,1,1,1});
isMetaUnstable=isMetaUnstable({0,0,0,0,0,0,0,0,0,0,0,0,0,0,0,0});

creditDelayStdDevs=creditDelayStdDevs({0,0,0,0,0,0,0,0,0,0,0,0,0,0,0,0});
routingDelayStdDevs=routingDelayStdDevs({0,0,0,0,0,0,0,0,0,0,0,0,0,0,0,0});
vcAllocDelayStdDevs=vcAllocDelayStdDevs({0,0,0,0,0,0,0,0,0,0,0,0,0,0,0,0});
swAllocDelayStdDevs=swAllocDelayStdDevs({0,0,0,0,0,0,0,0,0,0,0,0,0,0,0,0});
stFinalDelayStdDevs=stFinalDelayStdDevs({0,0,0,0,0,0,0,0,0,0,0,0,0,0,0,0});

  
swAllocThresholds=swAllocThresholds({1,1,1,1,1,1,1,1,1,1,1,1,1,1,1,1});
swAllocThresholdStdDevs=swAllocThresholdStdDevs({0,0,0,0,0,0,0,0,0,0,0,0,0,0,0,0});
swAllocMetaStableThresholds=swAllocMetaStableThresholds({1,1,1,1,1,1,1,1,1,1,1,1,1,1,1,1});
swAllocMetaStableMaxPenalities=swAllocMetaStableMaxPenalities({0,0,0,0,0,0,0,0,0,0,0,0,0,0,0,0});

END Configuration File: chip3_1
BEGIN Configuration File: chip4_1
//topology
topology = mesh;
k = 4;
n = 2;
type = chip;
//start_point = 10;
start_point = 36;
cnum = 4;
// Routing
routing_function = dor;

// Flow control
num_vcs     = 2;
vc_buf_size = 8;
wait_for_tail_credit = 1;
hold_switch_for_packet = 1;

// Router architecture
vc_allocator = islip;
sw_allocator = islip;
alloc_iters  = 1;

credit_delay   = 1;
routing_delay  = 1;
vc_alloc_delay = 1;
sw_alloc_delay = 1;
st_final_delay = 1;

input_speedup     = 1;
output_speedup    = 1;
internal_speedup  = 1.0;
vc_busy_when_full = 0;


//granulaity
latency_thres=20000.0;
deadlock_warn_timeout=20000;
traceStretch=3;

//gating
doGating=0;
sleepThreshold=40;
breakEvenThreshold=80;



//Syn Traffic
sim_type=latency;
traffic=uniform;
packet_size = 1;
sample_period=50000;
warmup_periods=3;
max_samples=14;
injection_rate=0.01;

creditDelays=creditDelays({0,0,0,0,0,0,0,0,0,0,0,0,0,0,0,0,0,0,0,0,0,0,0,0,0,0,0,0,0,0,0,0,0,0,0,0,0,0,0,0,0,0,0,0,0,0,0,0,0,0,0,0,0,0,0,0,0,0,0,0,0,0,0,0}});
routingDelays=routingDelays({15,15,15,15,15,15,15,15,15,15,15,15,15,15,15,15,15,15,15,15,15,15,15,15,15,15,15,15,15,15,15,15,15,15,15,15,15,15,15,15,15,15,15,15,15,15,15,15,15,15,15,15,15,15,15,15,15,15,15,15,15,15,15,15});
vcAllocDelays=vcAllocDelays({15,15,15,15,15,15,15,15,15,15,15,15,15,15,15,15,15,15,15,15,15,15,15,15,15,15,15,15,15,15,15,15,15,15,15,15,15,15,15,15,15,15,15,15,15,15,15,15,15,15,15,15,15,15,15,15,15,15,15,15,15,15,15,15});
swAllocDelays=swAllocDelays({15,15,15,15,15,15,15,15,15,15,15,15,15,15,15,15,15,15,15,15,15,15,15,15,15,15,15,15,15,15,15,15,15,15,15,15,15,15,15,15,15,15,15,15,15,15,15,15,15,15,15,15,15,15,15,15,15,15,15,15,15,15,15,15});
stFinalDelays=stFinalDelays({15,15,15,15,15,15,15,15,15,15,15,15,15,15,15,15,15,15,15,15,15,15,15,15,15,15,15,15,15,15,15,15,15,15,15,15,15,15,15,15,15,15,15,15,15,15,15,15,15,15,15,15,15,15,15,15,15,15,15,15,15,15,15,15});


isAsync=isAsync({1,1,1,1,1,1,1,1,1,1,1,1,1,1,1,1});
isMetaUnstable=isMetaUnstable({0,0,0,0,0,0,0,0,0,0,0,0,0,0,0,0});

creditDelayStdDevs=creditDelayStdDevs({0,0,0,0,0,0,0,0,0,0,0,0,0,0,0,0});
routingDelayStdDevs=routingDelayStdDevs({0,0,0,0,0,0,0,0,0,0,0,0,0,0,0,0});
vcAllocDelayStdDevs=vcAllocDelayStdDevs({0,0,0,0,0,0,0,0,0,0,0,0,0,0,0,0});
swAllocDelayStdDevs=swAllocDelayStdDevs({0,0,0,0,0,0,0,0,0,0,0,0,0,0,0,0});
stFinalDelayStdDevs=stFinalDelayStdDevs({0,0,0,0,0,0,0,0,0,0,0,0,0,0,0,0});

  
swAllocThresholds=swAllocThresholds({1,1,1,1,1,1,1,1,1,1,1,1,1,1,1,1});
swAllocThresholdStdDevs=swAllocThresholdStdDevs({0,0,0,0,0,0,0,0,0,0,0,0,0,0,0,0});
swAllocMetaStableThresholds=swAllocMetaStableThresholds({1,1,1,1,1,1,1,1,1,1,1,1,1,1,1,1});
swAllocMetaStableMaxPenalities=swAllocMetaStableMaxPenalities({0,0,0,0,0,0,0,0,0,0,0,0,0,0,0,0});

END Configuration File: chip4_1
rid:0 add output _25chan1
rid:0 add input _25chan0
rid:1 add output _25chan3
rid:1 add input _25chan2
rid:2 add output _25chan5
rid:2 add input _25chan4
rid:3 add output _25chan7
rid:3 add input _25chan6
rid:4 add output _25chan33
rid:4 add input _25chan32
rid:5 add output _25chan35
rid:5 add input _25chan34
rid:6 add output _25chan37
rid:6 add input _25chan36
rid:7 add output _25chan39
rid:7 add input _25chan38
rid:8 add output _25chan9
rid:8 add input _25chan8
rid:9 add output _25chan11
rid:9 add input _25chan10
rid:10 add output _25chan13
rid:10 add input _25chan12
rid:11 add output _25chan15
rid:11 add input _25chan14
rid:12 add output _25chan41
rid:12 add input _25chan40
rid:13 add output _25chan43
rid:13 add input _25chan42
rid:14 add output _25chan45
rid:14 add input _25chan44
rid:15 add output _25chan47
rid:15 add input _25chan46
rid:16 add output _25chan17
rid:16 add input _25chan16
rid:17 add output _25chan19
rid:17 add input _25chan18
rid:18 add output _25chan21
rid:18 add input _25chan20
rid:19 add output _25chan23
rid:19 add input _25chan22
rid:20 add output _25chan49
rid:20 add input _25chan48
rid:21 add output _25chan51
rid:21 add input _25chan50
rid:22 add output _25chan53
rid:22 add input _25chan52
rid:23 add output _25chan55
rid:23 add input _25chan54
rid:24 add output _25chan25
rid:24 add input _25chan24
rid:25 add output _25chan27
rid:25 add input _25chan26
rid:26 add output _25chan29
rid:26 add input _25chan28
rid:27 add output _25chan31
rid:27 add input _25chan30
rid:28 add output _25chan57
rid:28 add input _25chan56
rid:29 add output _25chan59
rid:29 add input _25chan58
rid:30 add output _25chan61
rid:30 add input _25chan60
rid:31 add output _25chan63
rid:31 add input _25chan62
rid:32 add output _25chan65
rid:32 add input _25chan64
rid:33 add output _25chan67
rid:33 add input _25chan66
rid:34 add output _25chan69
rid:34 add input _25chan68
rid:35 add output _25chan71
rid:35 add input _25chan70
rid:36 add output _25chan97
rid:36 add input _25chan96
rid:37 add output _25chan99
rid:37 add input _25chan98
rid:38 add output _25chan101
rid:38 add input _25chan100
rid:39 add output _25chan103
rid:39 add input _25chan102
rid:40 add output _25chan73
rid:40 add input _25chan72
rid:41 add output _25chan75
rid:41 add input _25chan74
rid:42 add output _25chan77
rid:42 add input _25chan76
rid:43 add output _25chan79
rid:43 add input _25chan78
rid:44 add output _25chan105
rid:44 add input _25chan104
rid:45 add output _25chan107
rid:45 add input _25chan106
rid:46 add output _25chan109
rid:46 add input _25chan108
rid:47 add output _25chan111
rid:47 add input _25chan110
rid:48 add output _25chan81
rid:48 add input _25chan80
rid:49 add output _25chan83
rid:49 add input _25chan82
rid:50 add output _25chan85
rid:50 add input _25chan84
rid:51 add output _25chan87
rid:51 add input _25chan86
rid:52 add output _25chan113
rid:52 add input _25chan112
rid:53 add output _25chan115
rid:53 add input _25chan114
rid:54 add output _25chan117
rid:54 add input _25chan116
rid:55 add output _25chan119
rid:55 add input _25chan118
rid:56 add output _25chan89
rid:56 add input _25chan88
rid:57 add output _25chan91
rid:57 add input _25chan90
rid:58 add output _25chan93
rid:58 add input _25chan92
rid:59 add output _25chan95
rid:59 add input _25chan94
rid:60 add output _25chan121
rid:60 add input _25chan120
rid:61 add output _25chan123
rid:61 add input _25chan122
rid:62 add output _25chan125
rid:62 add input _25chan124
rid:63 add output _25chan127
rid:63 add input _25chan126
rid:0 add output _25chan0
rid:0 add input _25chan1
rid:1 add output _25chan2
rid:1 add input _25chan3
rid:2 add output _25chan4
rid:2 add input _25chan5
rid:3 add output _25chan6
rid:3 add input _25chan7
rid:4 add output _25chan8
rid:4 add input _25chan9
rid:5 add output _25chan10
rid:5 add input _25chan11
rid:6 add output _25chan12
rid:6 add input _25chan13
rid:7 add output _25chan14
rid:7 add input _25chan15
rid:8 add output _25chan16
rid:8 add input _25chan17
rid:9 add output _25chan18
rid:9 add input _25chan19
rid:10 add output _25chan20
rid:10 add input _25chan21
rid:11 add output _25chan22
rid:11 add input _25chan23
rid:12 add output _25chan24
rid:12 add input _25chan25
rid:13 add output _25chan26
rid:13 add input _25chan27
rid:14 add output _25chan28
rid:14 add input _25chan29
rid:15 add output _25chan30
rid:15 add input _25chan31
rid:0 add output _25chan32
rid:0 add input _25chan33
rid:1 add output _25chan34
rid:1 add input _25chan35
rid:2 add output _25chan36
rid:2 add input _25chan37
rid:3 add output _25chan38
rid:3 add input _25chan39
rid:4 add output _25chan40
rid:4 add input _25chan41
rid:5 add output _25chan42
rid:5 add input _25chan43
rid:6 add output _25chan44
rid:6 add input _25chan45
rid:7 add output _25chan46
rid:7 add input _25chan47
rid:8 add output _25chan48
rid:8 add input _25chan49
rid:9 add output _25chan50
rid:9 add input _25chan51
rid:10 add output _25chan52
rid:10 add input _25chan53
rid:11 add output _25chan54
rid:11 add input _25chan55
rid:12 add output _25chan56
rid:12 add input _25chan57
rid:13 add output _25chan58
rid:13 add input _25chan59
rid:14 add output _25chan60
rid:14 add input _25chan61
rid:15 add output _25chan62
rid:15 add input _25chan63
rid:0 add output _25chan64
rid:0 add input _25chan65
rid:1 add output _25chan66
rid:1 add input _25chan67
rid:2 add output _25chan68
rid:2 add input _25chan69
rid:3 add output _25chan70
rid:3 add input _25chan71
rid:4 add output _25chan72
rid:4 add input _25chan73
rid:5 add output _25chan74
rid:5 add input _25chan75
rid:6 add output _25chan76
rid:6 add input _25chan77
rid:7 add output _25chan78
rid:7 add input _25chan79
rid:8 add output _25chan80
rid:8 add input _25chan81
rid:9 add output _25chan82
rid:9 add input _25chan83
rid:10 add output _25chan84
rid:10 add input _25chan85
rid:11 add output _25chan86
rid:11 add input _25chan87
rid:12 add output _25chan88
rid:12 add input _25chan89
rid:13 add output _25chan90
rid:13 add input _25chan91
rid:14 add output _25chan92
rid:14 add input _25chan93
rid:15 add output _25chan94
rid:15 add input _25chan95
rid:0 add output _25chan96
rid:0 add input _25chan97
rid:1 add output _25chan98
rid:1 add input _25chan99
rid:2 add output _25chan100
rid:2 add input _25chan101
rid:3 add output _25chan102
rid:3 add input _25chan103
rid:4 add output _25chan104
rid:4 add input _25chan105
rid:5 add output _25chan106
rid:5 add input _25chan107
rid:6 add output _25chan108
rid:6 add input _25chan109
rid:7 add output _25chan110
rid:7 add input _25chan111
rid:8 add output _25chan112
rid:8 add input _25chan113
rid:9 add output _25chan114
rid:9 add input _25chan115
rid:10 add output _25chan116
rid:10 add input _25chan117
rid:11 add output _25chan118
rid:11 add input _25chan119
rid:12 add output _25chan120
rid:12 add input _25chan121
rid:13 add output _25chan122
rid:13 add input _25chan123
rid:14 add output _25chan124
rid:14 add input _25chan125
rid:15 add output _25chan126
rid:15 add input _25chan127
Warming up...

Tick: 0M
===== Time: 25000 =====
Class 0:
Packets read from trace = 201 of 16982735 (0%)
Future packets = 1
Waiting packets = 0
Stalled packets = 144
Packets pending injection = 0
Packets in flight = 2
Minimum packet latency = 246
Average packet latency = 579.111
Maximum packet latency = 810
Minimum network latency = 246
Average network latency = 570.204
Maximum network latency = 809
Slowest packet = 26
Minimum flit latency = 246
Average flit latency = 559.996
Maximum flit latency = 761
Slowest flit = 138
Minimum fragmentation = 0
Average fragmentation = 25.4074
Maximum fragmentation = 60
Minimum injected packet rate = 0 (at node 0)
Average injected packet rate = 1.75e-05
Maximum injected packet rate = 0.0008 (at node 66)
Minimum accepted packet rate = 0 (at node 0)
Average accepted packet rate = 1.6875e-05
Maximum accepted packet rate = 0.0004 (at node 66)
Minimum injected flit rate = 0 (at node 0)
Average injected flit rate = 9e-05
Maximum injected flit rate = 0.004 (at node 66)
Minimum accepted flit rate = 0 (at node 0)
Average accepted flit rate = 8.6875e-05
Maximum accepted flit rate = 0.0036 (at node 66)
Total number of injected packets = 56
Total number of injected flits = 288
Average injected packet length = 5.14286
Total number of accepted packets = 54
Total number of accepted flits = 278
Average accepted packet length = 5.14815
Total in-flight flits = 10 (0 measured)
Warmup ends after 25000 cycles.
Beginning measurements...
===== Time: 50000 =====
Class 0:
Packets read from trace = 393 of 16982735 (0%)
Future packets = 1
Waiting packets = 0
Stalled packets = 288
Packets pending injection = 0
Packets in flight = 1
Minimum packet latency = 246
Average packet latency = 584.255
Maximum packet latency = 803
Minimum network latency = 246
Average network latency = 575.17
Maximum network latency = 802
Slowest packet = 59
Minimum flit latency = 246
Average flit latency = 604.696
Maximum flit latency = 754
Slowest flit = 307
Minimum fragmentation = 0
Average fragmentation = 21.383
Maximum fragmentation = 60
Minimum injected packet rate = 0 (at node 0)
Average injected packet rate = 1.5e-05
Maximum injected packet rate = 0.00068 (at node 66)
Minimum accepted packet rate = 0 (at node 0)
Average accepted packet rate = 1.53125e-05
Maximum accepted packet rate = 0.00048 (at node 66)
Minimum injected flit rate = 0 (at node 0)
Average injected flit rate = 6.75e-05
Maximum injected flit rate = 0.00324 (at node 66)
Minimum accepted flit rate = 0 (at node 0)
Average accepted flit rate = 6.78125e-05
Maximum accepted flit rate = 0.00432 (at node 66)
Total number of injected packets = 48
Total number of injected flits = 216
Average injected packet length = 4.5
Total number of accepted packets = 49
Total number of accepted flits = 217
Average accepted packet length = 4.42857
Total in-flight flits = 9 (9 measured)
===== Time: 75000 =====
Class 0:
Packets read from trace = 588 of 16982735 (0%)
Future packets = 1
Waiting packets = 0
Stalled packets = 428
Packets pending injection = 0
Packets in flight = 1
Minimum packet latency = 246
Average packet latency = 580.804
Maximum packet latency = 803
Minimum network latency = 246
Average network latency = 571.912
Maximum network latency = 802
Slowest packet = 59
Minimum flit latency = 246
Average flit latency = 591.867
Maximum flit latency = 759
Slowest flit = 728
Minimum fragmentation = 0
Average fragmentation = 22.9314
Maximum fragmentation = 60
Minimum injected packet rate = 0 (at node 0)
Average injected packet rate = 1.60938e-05
Maximum injected packet rate = 0.00072 (at node 66)
Minimum accepted packet rate = 0 (at node 0)
Average accepted packet rate = 1.625e-05
Maximum accepted packet rate = 0.00048 (at node 66)
Minimum injected flit rate = 0 (at node 0)
Average injected flit rate = 7.60938e-05
Maximum injected flit rate = 0.00344 (at node 66)
Minimum accepted flit rate = 0 (at node 0)
Average accepted flit rate = 7.625e-05
Maximum accepted flit rate = 0.00432 (at node 66)
Total number of injected packets = 103
Total number of injected flits = 487
Average injected packet length = 4.72816
Total number of accepted packets = 104
Total number of accepted flits = 488
Average accepted packet length = 4.69231
Total in-flight flits = 9 (9 measured)
===== Time: 100000 =====
Class 0:
Packets read from trace = 782 of 16982735 (0%)
Future packets = 1
Waiting packets = 0
Stalled packets = 572
Packets pending injection = 0
Packets in flight = 1
Minimum packet latency = 246
Average packet latency = 578.842
Maximum packet latency = 803
Minimum network latency = 246
Average network latency = 569.73
Maximum network latency = 802
Slowest packet = 59
Minimum flit latency = 246
Average flit latency = 589.136
Maximum flit latency = 759
Slowest flit = 728
Minimum fragmentation = 0
Average fragmentation = 22.6184
Maximum fragmentation = 60
Minimum injected packet rate = 0 (at node 0)
Average injected packet rate = 1.59375e-05
Maximum injected packet rate = 0.000733333 (at node 66)
Minimum accepted packet rate = 0 (at node 0)
Average accepted packet rate = 1.60417e-05
Maximum accepted packet rate = 0.000493333 (at node 66)
Minimum injected flit rate = 0 (at node 0)
Average injected flit rate = 7.42708e-05
Maximum injected flit rate = 0.00350667 (at node 66)
Minimum accepted flit rate = 0 (at node 0)
Average accepted flit rate = 7.4375e-05
Maximum accepted flit rate = 0.00444 (at node 66)
Total number of injected packets = 153
Total number of injected flits = 713
Average injected packet length = 4.66013
Total number of accepted packets = 154
Total number of accepted flits = 714
Average accepted packet length = 4.63636
Total in-flight flits = 9 (9 measured)
===== Time: 125000 =====
Class 0:
Packets read from trace = 975 of 16982735 (0%)
Future packets = 1
Waiting packets = 1
Stalled packets = 713
Packets pending injection = 0
Packets in flight = 0
Minimum packet latency = 246
Average packet latency = 579.848
Maximum packet latency = 803
Minimum network latency = 246
Average network latency = 570.441
Maximum network latency = 802
Slowest packet = 59
Minimum flit latency = 246
Average flit latency = 584.166
Maximum flit latency = 759
Slowest flit = 728
Minimum fragmentation = 0
Average fragmentation = 22.9559
Maximum fragmentation = 60
Minimum injected packet rate = 0 (at node 0)
Average injected packet rate = 1.59375e-05
Maximum injected packet rate = 0.00075 (at node 66)
Minimum accepted packet rate = 0 (at node 0)
Average accepted packet rate = 1.60938e-05
Maximum accepted packet rate = 0.00048 (at node 66)
Minimum injected flit rate = 0 (at node 0)
Average injected flit rate = 7.46875e-05
Maximum injected flit rate = 0.00363 (at node 66)
Minimum accepted flit rate = 0 (at node 0)
Average accepted flit rate = 7.54688e-05
Maximum accepted flit rate = 0.00432 (at node 66)
Total number of injected packets = 204
Total number of injected flits = 956
Average injected packet length = 4.68627
Total number of accepted packets = 206
Total number of accepted flits = 966
Average accepted packet length = 4.68932
Total in-flight flits = 0 (0 measured)
===== Time: 150000 =====
Class 0:
Packets read from trace = 1167 of 16982735 (0%)
Future packets = 1
Waiting packets = 0
Stalled packets = 855
Packets pending injection = 0
Packets in flight = 2
Minimum packet latency = 246
Average packet latency = 581.289
Maximum packet latency = 803
Minimum network latency = 246
Average network latency = 571.81
Maximum network latency = 802
Slowest packet = 59
Minimum flit latency = 246
Average flit latency = 585.061
Maximum flit latency = 759
Slowest flit = 728
Minimum fragmentation = 0
Average fragmentation = 23.0119
Maximum fragmentation = 60
Minimum injected packet rate = 0 (at node 0)
Average injected packet rate = 1.59375e-05
Maximum injected packet rate = 0.00076 (at node 66)
Minimum accepted packet rate = 0 (at node 0)
Average accepted packet rate = 1.59375e-05
Maximum accepted packet rate = 0.000464 (at node 66)
Minimum injected flit rate = 0 (at node 0)
Average injected flit rate = 7.49375e-05
Maximum injected flit rate = 0.003704 (at node 66)
Minimum accepted flit rate = 0 (at node 0)
Average accepted flit rate = 7.49375e-05
Maximum accepted flit rate = 0.004176 (at node 66)
Total number of injected packets = 255
Total number of injected flits = 1199
Average injected packet length = 4.70196
Total number of accepted packets = 255
Total number of accepted flits = 1199
Average accepted packet length = 4.70196
Total in-flight flits = 10 (10 measured)
===== Time: 175000 =====
Class 0:
Packets read from trace = 1353 of 16982735 (0%)
Future packets = 1
Waiting packets = 0
Stalled packets = 993
Packets pending injection = 0
Packets in flight = 1
Minimum packet latency = 246
Average packet latency = 580.709
Maximum packet latency = 803
Minimum network latency = 246
Average network latency = 570.894
Maximum network latency = 802
Slowest packet = 59
Minimum flit latency = 246
Average flit latency = 586.192
Maximum flit latency = 759
Slowest flit = 728
Minimum fragmentation = 0
Average fragmentation = 22.8543
Maximum fragmentation = 60
Minimum injected packet rate = 0 (at node 0)
Average injected packet rate = 1.57813e-05
Maximum injected packet rate = 0.000753333 (at node 66)
Minimum accepted packet rate = 0 (at node 0)
Average accepted packet rate = 1.58333e-05
Maximum accepted packet rate = 0.000446667 (at node 66)
Minimum injected flit rate = 0 (at node 0)
Average injected flit rate = 7.36979e-05
Maximum injected flit rate = 0.00368667 (at node 66)
Minimum accepted flit rate = 0 (at node 0)
Average accepted flit rate = 7.41667e-05
Maximum accepted flit rate = 0.00407333 (at node 66)
Total number of injected packets = 303
Total number of injected flits = 1415
Average injected packet length = 4.66997
Total number of accepted packets = 304
Total number of accepted flits = 1424
Average accepted packet length = 4.68421
Total in-flight flits = 1 (1 measured)
===== Time: 200000 =====
Class 0:
Packets read from trace = 1544 of 16982735 (0%)
Future packets = 1
Waiting packets = 0
Stalled packets = 1132
Packets pending injection = 0
Packets in flight = 1
Minimum packet latency = 246
Average packet latency = 579.689
Maximum packet latency = 803
Minimum network latency = 246
Average network latency = 569.819
Maximum network latency = 802
Slowest packet = 59
Minimum flit latency = 246
Average flit latency = 584.011
Maximum flit latency = 759
Slowest flit = 728
Minimum fragmentation = 0
Average fragmentation = 22.9068
Maximum fragmentation = 60
Minimum injected packet rate = 0 (at node 0)
Average injected packet rate = 1.58482e-05
Maximum injected packet rate = 0.00076 (at node 66)
Minimum accepted packet rate = 0 (at node 0)
Average accepted packet rate = 1.58929e-05
Maximum accepted packet rate = 0.00044 (at node 66)
Minimum injected flit rate = 0 (at node 0)
Average injected flit rate = 7.40625e-05
Maximum injected flit rate = 0.00373143 (at node 66)
Minimum accepted flit rate = 0 (at node 0)
Average accepted flit rate = 7.41071e-05
Maximum accepted flit rate = 0.00396 (at node 66)
Total number of injected packets = 355
Total number of injected flits = 1659
Average injected packet length = 4.67324
Total number of accepted packets = 356
Total number of accepted flits = 1660
Average accepted packet length = 4.66292
Total in-flight flits = 9 (9 measured)
===== Time: 225000 =====
Class 0:
Packets read from trace = 1727 of 16982735 (0%)
Future packets = 1
Waiting packets = 1
Stalled packets = 1272
Packets pending injection = 0
Packets in flight = 0
Minimum packet latency = 246
Average packet latency = 580.96
Maximum packet latency = 803
Minimum network latency = 246
Average network latency = 571.32
Maximum network latency = 802
Slowest packet = 59
Minimum flit latency = 246
Average flit latency = 584.531
Maximum flit latency = 759
Slowest flit = 728
Minimum fragmentation = 0
Average fragmentation = 22.3526
Maximum fragmentation = 60
Minimum injected packet rate = 0 (at node 0)
Average injected packet rate = 1.55078e-05
Maximum injected packet rate = 0.000745 (at node 66)
Minimum accepted packet rate = 0 (at node 0)
Average accepted packet rate = 1.55859e-05
Maximum accepted packet rate = 0.000435 (at node 66)
Minimum injected flit rate = 0 (at node 0)
Average injected flit rate = 7.11328e-05
Maximum injected flit rate = 0.003585 (at node 66)
Minimum accepted flit rate = 0 (at node 0)
Average accepted flit rate = 7.15234e-05
Maximum accepted flit rate = 0.003915 (at node 66)
Total number of injected packets = 397
Total number of injected flits = 1821
Average injected packet length = 4.5869
Total number of accepted packets = 399
Total number of accepted flits = 1831
Average accepted packet length = 4.58897
Total in-flight flits = 0 (0 measured)
===== Time: 250000 =====
Class 0:
Packets read from trace = 1919 of 16982735 (0%)
Future packets = 1
Waiting packets = 0
Stalled packets = 1410
Packets pending injection = 0
Packets in flight = 1
Minimum packet latency = 246
Average packet latency = 580.322
Maximum packet latency = 803
Minimum network latency = 246
Average network latency = 570.656
Maximum network latency = 802
Slowest packet = 59
Minimum flit latency = 246
Average flit latency = 583.335
Maximum flit latency = 759
Slowest flit = 728
Minimum fragmentation = 0
Average fragmentation = 22.6364
Maximum fragmentation = 60
Minimum injected packet rate = 0 (at node 0)
Average injected packet rate = 1.56944e-05
Maximum injected packet rate = 0.000751111 (at node 66)
Minimum accepted packet rate = 0 (at node 0)
Average accepted packet rate = 1.57292e-05
Maximum accepted packet rate = 0.000431111 (at node 66)
Minimum injected flit rate = 0 (at node 0)
Average injected flit rate = 7.26389e-05
Maximum injected flit rate = 0.00363111 (at node 66)
Minimum accepted flit rate = 0 (at node 0)
Average accepted flit rate = 7.29514e-05
Maximum accepted flit rate = 0.00388 (at node 66)
Total number of injected packets = 452
Total number of injected flits = 2092
Average injected packet length = 4.62832
Total number of accepted packets = 453
Total number of accepted flits = 2101
Average accepted packet length = 4.63797
Total in-flight flits = 1 (1 measured)
===== Time: 275000 =====
Class 0:
Packets read from trace = 2107 of 16982735 (0%)
Future packets = 1
Waiting packets = 0
Stalled packets = 1552
Packets pending injection = 0
Packets in flight = 1
Minimum packet latency = 246
Average packet latency = 579.926
Maximum packet latency = 803
Minimum network latency = 246
Average network latency = 570.195
Maximum network latency = 802
Slowest packet = 59
Minimum flit latency = 246
Average flit latency = 583.804
Maximum flit latency = 759
Slowest flit = 728
Minimum fragmentation = 0
Average fragmentation = 22.503
Maximum fragmentation = 60
Minimum injected packet rate = 0 (at node 0)
Average injected packet rate = 1.55625e-05
Maximum injected packet rate = 0.000752 (at node 66)
Minimum accepted packet rate = 0 (at node 0)
Average accepted packet rate = 1.55937e-05
Maximum accepted packet rate = 0.000428 (at node 66)
Minimum injected flit rate = 0 (at node 0)
Average injected flit rate = 7.15625e-05
Maximum injected flit rate = 0.003632 (at node 66)
Minimum accepted flit rate = 0 (at node 0)
Average accepted flit rate = 7.18437e-05
Maximum accepted flit rate = 0.003852 (at node 66)
Total number of injected packets = 498
Total number of injected flits = 2290
Average injected packet length = 4.59839
Total number of accepted packets = 499
Total number of accepted flits = 2299
Average accepted packet length = 4.60721
Total in-flight flits = 1 (1 measured)
===== Time: 300000 =====
Class 0:
Packets read from trace = 2298 of 16982735 (0%)
Future packets = 1
Waiting packets = 0
Stalled packets = 1689
Packets pending injection = 0
Packets in flight = 2
Minimum packet latency = 246
Average packet latency = 578.582
Maximum packet latency = 803
Minimum network latency = 246
Average network latency = 569.007
Maximum network latency = 802
Slowest packet = 59
Minimum flit latency = 246
Average flit latency = 580.846
Maximum flit latency = 759
Slowest flit = 728
Minimum fragmentation = 0
Average fragmentation = 22.5455
Maximum fragmentation = 60
Minimum injected packet rate = 0 (at node 0)
Average injected packet rate = 1.56818e-05
Maximum injected packet rate = 0.000752727 (at node 66)
Minimum accepted packet rate = 0 (at node 0)
Average accepted packet rate = 1.56818e-05
Maximum accepted packet rate = 0.000425455 (at node 66)
Minimum injected flit rate = 0 (at node 0)
Average injected flit rate = 7.25e-05
Maximum injected flit rate = 0.00363273 (at node 66)
Minimum accepted flit rate = 0 (at node 0)
Average accepted flit rate = 7.25e-05
Maximum accepted flit rate = 0.00382909 (at node 66)
Total number of injected packets = 552
Total number of injected flits = 2552
Average injected packet length = 4.62319
Total number of accepted packets = 552
Total number of accepted flits = 2552
Average accepted packet length = 4.62319
Total in-flight flits = 10 (10 measured)
===== Time: 325000 =====
Class 0:
Packets read from trace = 2485 of 16982735 (0%)
Future packets = 1
Waiting packets = 0
Stalled packets = 1831
Packets pending injection = 0
Packets in flight = 1
Minimum packet latency = 246
Average packet latency = 579.611
Maximum packet latency = 803
Minimum network latency = 246
Average network latency = 569.883
Maximum network latency = 802
Slowest packet = 59
Minimum flit latency = 246
Average flit latency = 581.84
Maximum flit latency = 759
Slowest flit = 728
Minimum fragmentation = 0
Average fragmentation = 22.4413
Maximum fragmentation = 60
Minimum injected packet rate = 0 (at node 0)
Average injected packet rate = 1.55469e-05
Maximum injected packet rate = 0.00075 (at node 66)
Minimum accepted packet rate = 0 (at node 0)
Average accepted packet rate = 1.55729e-05
Maximum accepted packet rate = 0.00042 (at node 66)
Minimum injected flit rate = 0 (at node 0)
Average injected flit rate = 7.13802e-05
Maximum injected flit rate = 0.00363 (at node 66)
Minimum accepted flit rate = 0 (at node 0)
Average accepted flit rate = 7.16146e-05
Maximum accepted flit rate = 0.00378 (at node 66)
Total number of injected packets = 597
Total number of injected flits = 2741
Average injected packet length = 4.59129
Total number of accepted packets = 598
Total number of accepted flits = 2750
Average accepted packet length = 4.59866
Total in-flight flits = 1 (1 measured)
Completed measurements after 325000 cycles.
Draining remaining packets ...
Time taken is 325305 cycles
====== Traffic class 0 ======

Total number of flits generated = 3029, changed lanes = 0
Overall minimum packet latency = 246 (1 samples)
Overall average packet latency = 579.563 (1 samples)
Overall maximum packet latency = 803 (1 samples)
Overall minimum network latency = 246 (1 samples)
Overall average network latency = 569.851 (1 samples)
Overall maximum network latency = 802 (1 samples)
Overall minimum flit latency = 246 (1 samples)
Overall average flit latency = 581.829 (1 samples)
Overall maximum flit latency = 759 (1 samples)
Overall minimum fragmentation = 0 (1 samples)
Overall average fragmentation = 22.4037 (1 samples)
Overall maximum fragmentation = 60 (1 samples)
Overall minimum injected packet rate = 0 (1 samples)
Overall average injected packet rate = 1.55469e-05 (1 samples)
Overall maximum injected packet rate = 0.00075 (1 samples)
Overall minimum accepted packet rate = 0 (1 samples)
Overall average accepted packet rate = 1.55729e-05 (1 samples)
Overall maximum accepted packet rate = 0.00042 (1 samples)
Overall minimum injected flit rate = 0 (1 samples)
Overall average injected flit rate = 7.13802e-05 (1 samples)
Overall maximum injected flit rate = 0.00363 (1 samples)
Overall minimum accepted flit rate = 0 (1 samples)
Overall average accepted flit rate = 7.16146e-05 (1 samples)
Overall maximum accepted flit rate = 0.00378 (1 samples)
Overall average injected packet size = 4.59129 (1 samples)
Overall average accepted packet size = 4.59866 (1 samples)
Overall average hops = 8.86935 (1 samples)
Overall throughput of the network (flits/cycle) = 0.0100967
Overall throughput of the network (packets/cycle) = 0.00217667
CSV Result Header , avgFLat,avgFInjRate
CSV Result ,581.829,1.55469e-05
Overall workload runtime = 300000 (1 samples)

The distribution of the source packets of size 1 is: 

Source [0] = 0
Source [1] = 0
Source [2] = 127
Source [3] = 0
Source [4] = 0
Source [5] = 24
Source [6] = 0
Source [7] = 0
Source [8] = 0
Source [9] = 0
Source [10] = 0
Source [11] = 0
Source [12] = 0
Source [13] = 0
Source [14] = 0
Source [15] = 0
Source [16] = 0
Source [17] = 0
Source [18] = 0
Source [19] = 0
Source [20] = 0
Source [21] = 0
Source [22] = 0
Source [23] = 23
Source [24] = 0
Source [25] = 0
Source [26] = 0
Source [27] = 0
Source [28] = 0
Source [29] = 0
Source [30] = 0
Source [31] = 23
Source [32] = 0
Source [33] = 23
Source [34] = 0
Source [35] = 23
Source [36] = 0
Source [37] = 22
Source [38] = 0
Source [39] = 22
Source [40] = 0
Source [41] = 1
Source [42] = 0
Source [43] = 0
Source [44] = 0
Source [45] = 0
Source [46] = 0
Source [47] = 22
Source [48] = 0
Source [49] = 0
Source [50] = 0
Source [51] = 0
Source [52] = 0
Source [53] = 0
Source [54] = 0
Source [55] = 0
Source [56] = 0
Source [57] = 0
Source [58] = 0
Source [59] = 0
Source [60] = 0
Source [61] = 46
Source [62] = 0
Source [63] = 0
The distribution of the source packets of size 9 is: 

Source [0] = 0
Source [1] = 0
Source [2] = 118
Source [3] = 0
Source [4] = 0
Source [5] = 0
Source [6] = 0
Source [7] = 0
Source [8] = 0
Source [9] = 0
Source [10] = 0
Source [11] = 0
Source [12] = 0
Source [13] = 0
Source [14] = 0
Source [15] = 0
Source [16] = 0
Source [17] = 0
Source [18] = 0
Source [19] = 0
Source [20] = 0
Source [21] = 0
Source [22] = 0
Source [23] = 0
Source [24] = 13
Source [25] = 0
Source [26] = 0
Source [27] = 0
Source [28] = 0
Source [29] = 0
Source [30] = 0
Source [31] = 31
Source [32] = 0
Source [33] = 35
Source [34] = 0
Source [35] = 29
Source [36] = 0
Source [37] = 26
Source [38] = 0
Source [39] = 35
Source [40] = 9
Source [41] = 1
Source [42] = 0
Source [43] = 0
Source [44] = 0
Source [45] = 0
Source [46] = 0
Source [47] = 0
Source [48] = 0
Source [49] = 0
Source [50] = 0
Source [51] = 0
Source [52] = 0
Source [53] = 0
Source [54] = 0
Source [55] = 0
Source [56] = 0
Source [57] = 0
Source [58] = 0
Source [59] = 0
Source [60] = 0
Source [61] = 0
Source [62] = 0
Source [63] = 0
The distribution of the dest packets of size 1 is: 

dest [0] = 0
dest [1] = 0
dest [2] = 0
dest [3] = 0
dest [4] = 0
dest [5] = 24
dest [6] = 0
dest [7] = 0
dest [8] = 0
dest [9] = 0
dest [10] = 0
dest [11] = 0
dest [12] = 0
dest [13] = 0
dest [14] = 0
dest [15] = 0
dest [16] = 0
dest [17] = 0
dest [18] = 0
dest [19] = 0
dest [20] = 0
dest [21] = 0
dest [22] = 0
dest [23] = 23
dest [24] = 13
dest [25] = 0
dest [26] = 0
dest [27] = 0
dest [28] = 0
dest [29] = 0
dest [30] = 0
dest [31] = 46
dest [32] = 0
dest [33] = 46
dest [34] = 0
dest [35] = 46
dest [36] = 0
dest [37] = 44
dest [38] = 0
dest [39] = 45
dest [40] = 0
dest [41] = 2
dest [42] = 0
dest [43] = 0
dest [44] = 0
dest [45] = 0
dest [46] = 0
dest [47] = 22
dest [48] = 0
dest [49] = 0
dest [50] = 0
dest [51] = 0
dest [52] = 0
dest [53] = 0
dest [54] = 0
dest [55] = 0
dest [56] = 0
dest [57] = 0
dest [58] = 0
dest [59] = 0
dest [60] = 0
dest [61] = 45
dest [62] = 0
dest [63] = 0
The distribution of the dest packets of size 9 is: 

dest [0] = 0
dest [1] = 0
dest [2] = 136
dest [3] = 0
dest [4] = 0
dest [5] = 12
dest [6] = 0
dest [7] = 0
dest [8] = 0
dest [9] = 0
dest [10] = 0
dest [11] = 0
dest [12] = 0
dest [13] = 0
dest [14] = 1
dest [15] = 0
dest [16] = 0
dest [17] = 0
dest [18] = 0
dest [19] = 0
dest [20] = 0
dest [21] = 0
dest [22] = 0
dest [23] = 7
dest [24] = 0
dest [25] = 0
dest [26] = 0
dest [27] = 0
dest [28] = 0
dest [29] = 0
dest [30] = 0
dest [31] = 23
dest [32] = 1
dest [33] = 22
dest [34] = 0
dest [35] = 22
dest [36] = 0
dest [37] = 22
dest [38] = 0
dest [39] = 21
dest [40] = 6
dest [41] = 0
dest [42] = 0
dest [43] = 0
dest [44] = 0
dest [45] = 0
dest [46] = 0
dest [47] = 4
dest [48] = 0
dest [49] = 0
dest [50] = 0
dest [51] = 0
dest [52] = 0
dest [53] = 0
dest [54] = 0
dest [55] = 0
dest [56] = 0
dest [57] = 0
dest [58] = 0
dest [59] = 0
dest [60] = 0
dest [61] = 20
dest [62] = 0
dest [63] = 0
Power Report Header, Frequency, Time, StaticIQ, DynamicIQ, StaticVC, DynamicVC, StaticSA, DynamicSA, StaticST, DynamicST, StaticLink, DynamicLink, NoFlits, ePerFlit
Power Report,3.9e+08,325305,0.131875,0.000322697,0.00749762,1.88025e-06,0.00224928,2.13698e-06,0.477597,9.2623e-05,0.0905466,0.000226861,3029,1.95631e-07

*****************************************
Total run time 61.1396
generate:0x7ffc4d581310
delete:0x7ffc4d581310
L = 2 K = 8.1 M = 2 N = 1
-----------------------------------------
- OCN Power Summary
- Completion Time:         325305
- Flit Widths:            64
- Channel Wire Power:      0.0305617
- Channel Clock Power:     1.46183
- Channel Retiming Power:  0.000379712
- Channel Leakage Power:   0.551082
- Input Read Power:        0.000934345
- Input Write Power:       0.000934345
- Input Leakage Power:     0.113246
- Switch Power:            0.00202844
- Switch Control Power:    0.00104902
- Switch Leakage Power:    0.771052
- Output DFF Power:        0.000217767
- Output Clk Power:        0.727126
- Output Control Power:    0.000112386
- Total Power:             3.66055
-----------------------------------------

-----------------------------------------
- OCN Area Summary
- Channel Area:  0.109536
- Switch  Area:  0.241592
- Input  Area:   0.120796
- Output  Area:  0.0201327
- Total Area:    0.492056
-----------------------------------------
CSV Power Result Header , Completion Time, Channel Wire, Channel Clock, Channel Retiming, Channel Leakage, Input Read, Input Write, Input Leakage, Switch Power, Switch Control, Switch Leakage, Output DFF, Output Clk, Output Control
CSV Power Result , 325305, 0.0305617, 1.46183, 0.000379712, 0.551082, 0.000934345, 0.000934345, 0.113246, 0.00202844, 0.00104902, 0.771052, 0.000217767, 0.727126, 0.000112386
delete:0x7ffc4d581310
delete:0x7ffc4d581310
delete:0x7ffc4d581310
delete:0x7ffc4d581310
delete:0x7ffc4d581310
delete:0x7ffc4d581310
